data/pglib_opf_case4837_goc_storage.m
%%%%%%%%%%%%%%%%%%%%%%%%%%%%%%%%%%%%%%%%%%%%%%%%%%%%%%%%%%%%%%%%%%%%%%%%%%%
%%%%                                                                  %%%%%
%%%%    IEEE PES Power Grid Library - Optimal Power Flow - v23.07     %%%%%
%%%%          (https://github.com/power-grid-lib/pglib-opf)           %%%%%
%%%%               Benchmark Group - Typical Operations               %%%%%
%%%%                         23 - July - 2023                         %%%%%
%%%%                                                                  %%%%%
%%%%%%%%%%%%%%%%%%%%%%%%%%%%%%%%%%%%%%%%%%%%%%%%%%%%%%%%%%%%%%%%%%%%%%%%%%%
%
%   This is a synthetic 4,837 bus case, developed for use in ARPA-e's Grid
%   Optimization Competition, Challenge 1.
%
%   https://gocompetition.energy.gov/challenges/22/datasets
%
%   Copyright (c) 2020 University of Wisconsin-Madison
%   https://dev.epigrids.discovery.wisc.edu/
%   Licensed under the Creative Commons Attribution 4.0 International license,
%   http://creativecommons.org/licenses/by/4.0/
%
% Modified to have additional storage capacity and increased gencost
function mpc = pglib_opf_case4837_goc
mpc.version = '2';
mpc.baseMVA = 100.0;

%% bus data
%	bus_i	type	Pd	Qd	Gs	Bs	area	Vm	Va	baseKV	zone	Vmax	Vmin
mpc.bus = [
	39876	 1	 0.0	 0.0	 0.0	 0.0	 1	    1.00000	    0.00000	 138.0	 1	    1.10000	    0.90000;
	39877	 1	 0.0	 0.0	 0.0	 0.0	 1	    1.00000	    0.00000	 69.0	 1	    1.10000	    0.90000;
	39879	 1	 0.0	 0.0	 0.0	 0.0	 1	    1.00000	    0.00000	 138.0	 1	    1.10000	    0.90000;
	39880	 2	 0.0	 0.0	 0.0	 0.0	 1	    1.00000	    0.00000	 138.0	 1	    1.10000	    0.90000;
	39881	 1	 0.0	 0.0	 0.0	 0.0	 1	    1.00000	    0.00000	 69.0	 1	    1.10000	    0.90000;
	39882	 1	 0.0	 0.0	 0.0	 0.0	 1	    1.00000	    0.00000	 69.0	 1	    1.10000	    0.90000;
	39883	 1	 0.0	 0.0	 0.0	 0.0	 1	    1.00000	    0.00000	 69.0	 1	    1.10000	    0.90000;
	39884	 1	 0.0	 0.0	 0.0	 0.0	 1	    1.00000	    0.00000	 69.0	 1	    1.10000	    0.90000;
	39885	 1	 0.0	 0.0	 0.0	 0.0	 1	    1.00000	    0.00000	 69.0	 1	    1.10000	    0.90000;
	39886	 1	 0.0	 0.0	 0.0	 0.0	 1	    1.00000	    0.00000	 69.0	 1	    1.10000	    0.90000;
	39887	 1	 0.0	 0.0	 0.0	 0.0	 1	    1.00000	    0.00000	 69.0	 1	    1.10000	    0.90000;
	39888	 1	 0.0	 0.0	 0.0	 0.0	 1	    1.00000	    0.00000	 69.0	 1	    1.10000	    0.90000;
	39889	 1	 0.0	 0.0	 0.0	 0.0	 1	    1.00000	    0.00000	 69.0	 1	    1.10000	    0.90000;
	39890	 1	 0.0	 0.0	 0.0	 0.0	 1	    1.00000	    0.00000	 230.0	 1	    1.10000	    0.90000;
	39891	 1	 0.0	 0.0	 0.0	 0.0	 1	    1.00000	    0.00000	 138.0	 1	    1.10000	    0.90000;
	39892	 1	 0.0	 0.0	 0.0	 0.0	 1	    1.00000	    0.00000	 69.0	 1	    1.10000	    0.90000;
	39894	 1	 0.0	 0.0	 0.0	 0.0	 1	    1.00000	    0.00000	 69.0	 1	    1.10000	    0.90000;
	39895	 1	 0.0	 0.0	 0.0	 0.0	 1	    1.00000	    0.00000	 69.0	 1	    1.10000	    0.90000;
	39896	 2	 0.0	 0.0	 0.0	 0.0	 1	    1.00000	    0.00000	 69.0	 1	    1.10000	    0.90000;
	39898	 1	 0.0	 0.0	 0.0	 0.0	 1	    1.00000	    0.00000	 69.0	 1	    1.10000	    0.90000;
	39901	 1	 0.0	 0.0	 0.0	 0.0	 1	    1.00000	    0.00000	 69.0	 1	    1.10000	    0.90000;
	39902	 1	 0.0	 0.0	 0.0	 0.0	 1	    1.00000	    0.00000	 69.0	 1	    1.10000	    0.90000;
	39905	 1	 0.0	 0.0	 0.0	 0.0	 1	    1.00000	    0.00000	 69.0	 1	    1.10000	    0.90000;
	39908	 2	 0.0	 0.0	 0.0	 0.0	 1	    1.00000	    0.00000	 69.0	 1	    1.10000	    0.90000;
	39909	 1	 0.0	 0.0	 0.0	 0.0	 1	    1.00000	    0.00000	 69.0	 1	    1.10000	    0.90000;
	39912	 1	 0.0	 0.0	 0.0	 0.0	 1	    1.00000	    0.00000	 69.0	 1	    1.10000	    0.90000;
	39914	 1	 0.0	 0.0	 0.0	 0.0	 1	    1.00000	    0.00000	 69.0	 1	    1.10000	    0.90000;
	39915	 1	 0.0	 0.0	 0.0	 0.0	 1	    1.00000	    0.00000	 69.0	 1	    1.10000	    0.90000;
	39917	 1	 0.0	 0.0	 0.0	 0.0	 1	    1.00000	    0.00000	 69.0	 1	    1.10000	    0.90000;
	39922	 1	 0.0	 0.0	 0.0	 0.0	 1	    1.00000	    0.00000	 69.0	 1	    1.10000	    0.90000;
	39925	 1	 0.0	 0.0	 0.0	 0.0	 1	    1.00000	    0.00000	 138.0	 1	    1.10000	    0.90000;
	39926	 1	 0.0	 0.0	 0.0	 0.0	 1	    1.00000	    0.00000	 69.0	 1	    1.10000	    0.90000;
	39927	 1	 0.0	 0.0	 0.0	 0.0	 1	    1.00000	    0.00000	 69.0	 1	    1.10000	    0.90000;
	39928	 1	 0.0	 0.0	 0.0	 0.0	 1	    1.00000	    0.00000	 69.0	 1	    1.10000	    0.90000;
	39929	 1	 0.0	 0.0	 0.0	 0.0	 1	    1.00000	    0.00000	 69.0	 1	    1.10000	    0.90000;
	39931	 1	 0.0	 0.0	 0.0	 0.0	 1	    1.00000	    0.00000	 69.0	 1	    1.10000	    0.90000;
	39934	 1	 0.0	 0.0	 0.0	 0.0	 1	    1.00000	    0.00000	 138.0	 1	    1.10000	    0.90000;
	39935	 1	 0.0	 0.0	 0.0	 0.0	 1	    1.00000	    0.00000	 69.0	 1	    1.10000	    0.90000;
	39937	 1	 0.0	 0.0	 0.0	 0.0	 1	    1.00000	    0.00000	 138.0	 1	    1.10000	    0.90000;
	39938	 1	 0.0	 0.0	 0.0	 0.0	 1	    1.00000	    0.00000	 138.0	 1	    1.10000	    0.90000;
	39939	 1	 0.0	 0.0	 0.0	 0.0	 1	    1.00000	    0.00000	 69.0	 1	    1.10000	    0.90000;
	39940	 1	 0.0	 0.0	 0.0	 0.0	 1	    1.00000	    0.00000	 69.0	 1	    1.10000	    0.90000;
	39943	 1	 0.0	 0.0	 0.0	 0.0	 1	    1.00000	    0.00000	 69.0	 1	    1.10000	    0.90000;
	39945	 1	 0.0	 0.0	 0.0	 0.0	 1	    1.00000	    0.00000	 69.0	 1	    1.10000	    0.90000;
	39946	 1	 0.0	 0.0	 0.0	 0.0	 1	    1.00000	    0.00000	 69.0	 1	    1.10000	    0.90000;
	39952	 1	 0.0	 0.0	 0.0	 0.0	 1	    1.00000	    0.00000	 69.0	 1	    1.10000	    0.90000;
	39953	 1	 0.0	 0.0	 0.0	 0.0	 1	    1.00000	    0.00000	 69.0	 1	    1.10000	    0.90000;
	39954	 1	 0.0	 0.0	 0.0	 0.0	 1	    1.00000	    0.00000	 69.0	 1	    1.10000	    0.90000;
	39955	 1	 0.0	 0.0	 0.0	 0.0	 1	    1.00000	    0.00000	 69.0	 1	    1.10000	    0.90000;
	39956	 1	 0.0	 0.0	 0.0	 0.0	 1	    1.00000	    0.00000	 69.0	 1	    1.10000	    0.90000;
	39957	 1	 0.0	 0.0	 0.0	 0.0	 1	    1.00000	    0.00000	 69.0	 1	    1.10000	    0.90000;
	39958	 1	 0.0	 0.0	 0.0	 0.0	 1	    1.00000	    0.00000	 345.0	 1	    1.10000	    0.90000;
	39959	 1	 0.0	 0.0	 0.0	 0.0	 1	    1.00000	    0.00000	 138.0	 1	    1.10000	    0.90000;
	39960	 1	 0.0	 0.0	 0.0	 0.0	 1	    1.00000	    0.00000	 138.0	 1	    1.10000	    0.90000;
	39961	 1	 0.0	 0.0	 0.0	 0.0	 1	    1.00000	    0.00000	 69.0	 1	    1.10000	    0.90000;
	39962	 1	 0.0	 0.0	 0.0	 0.0	 1	    1.00000	    0.00000	 69.0	 1	    1.10000	    0.90000;
	39963	 1	 0.0	 0.0	 0.0	 0.0	 1	    1.00000	    0.00000	 69.0	 1	    1.10000	    0.90000;
	39964	 1	 0.0	 0.0	 0.0	 0.0	 1	    1.00000	    0.00000	 69.0	 1	    1.10000	    0.90000;
	39965	 1	 0.0	 0.0	 0.0	 0.0	 1	    1.00000	    0.00000	 69.0	 1	    1.10000	    0.90000;
	39966	 1	 0.0	 0.0	 0.0	 0.0	 1	    1.00000	    0.00000	 69.0	 1	    1.10000	    0.90000;
	39967	 1	 0.0	 0.0	 0.0	 0.0	 1	    1.00000	    0.00000	 69.0	 1	    1.10000	    0.90000;
	39968	 1	 0.0	 0.0	 0.0	 0.0	 1	    1.00000	    0.00000	 138.0	 1	    1.10000	    0.90000;
	39969	 1	 0.0	 0.0	 0.0	 0.0	 1	    1.00000	    0.00000	 69.0	 1	    1.10000	    0.90000;
	39970	 1	 0.0	 0.0	 0.0	 0.0	 1	    1.00000	    0.00000	 138.0	 1	    1.10000	    0.90000;
	39971	 1	 0.0	 0.0	 0.0	 0.0	 1	    1.00000	    0.00000	 69.0	 1	    1.10000	    0.90000;
	39972	 1	 0.0	 0.0	 0.0	 0.0	 1	    1.00000	    0.00000	 69.0	 1	    1.10000	    0.90000;
	39973	 1	 0.0	 0.0	 0.0	 0.0	 1	    1.00000	    0.00000	 69.0	 1	    1.10000	    0.90000;
	39974	 1	 0.0	 0.0	 0.0	 0.0	 1	    1.00000	    0.00000	 230.0	 1	    1.10000	    0.90000;
	39975	 1	 0.0	 0.0	 0.0	 0.0	 1	    1.00000	    0.00000	 69.0	 1	    1.10000	    0.90000;
	39976	 1	 0.0	 0.0	 0.0	 0.0	 1	    1.00000	    0.00000	 69.0	 1	    1.10000	    0.90000;
	39979	 1	 0.0	 0.0	 0.0	 0.0	 1	    1.00000	    0.00000	 69.0	 1	    1.10000	    0.90000;
	39980	 1	 0.0	 0.0	 0.0	 0.0	 1	    1.00000	    0.00000	 69.0	 1	    1.10000	    0.90000;
	39981	 1	 0.0	 0.0	 0.0	 0.0	 1	    1.00000	    0.00000	 138.0	 1	    1.10000	    0.90000;
	39982	 1	 0.0	 0.0	 0.0	 0.0	 1	    1.00000	    0.00000	 69.0	 1	    1.10000	    0.90000;
	39983	 1	 0.0	 0.0	 0.0	 0.0	 1	    1.00000	    0.00000	 69.0	 1	    1.10000	    0.90000;
	39984	 1	 0.0	 0.0	 0.0	 0.0	 1	    1.00000	    0.00000	 69.0	 1	    1.10000	    0.90000;
	39985	 1	 0.0	 0.0	 0.0	 0.0	 1	    1.00000	    0.00000	 69.0	 1	    1.10000	    0.90000;
	39986	 1	 0.0	 0.0	 0.0	 0.0	 1	    1.00000	    0.00000	 69.0	 1	    1.10000	    0.90000;
	39988	 1	 0.0	 0.0	 0.0	 0.0	 1	    1.00000	    0.00000	 138.0	 1	    1.10000	    0.90000;
	39989	 1	 0.0	 0.0	 0.0	 0.0	 1	    1.00000	    0.00000	 69.0	 1	    1.10000	    0.90000;
	39990	 1	 0.0	 0.0	 0.0	 0.0	 1	    1.00000	    0.00000	 69.0	 1	    1.10000	    0.90000;
	39991	 1	 0.0	 0.0	 0.0	 0.0	 1	    1.00000	    0.00000	 69.0	 1	    1.10000	    0.90000;
	39992	 1	 0.0	 0.0	 0.0	 0.0	 1	    1.00000	    0.00000	 69.0	 1	    1.10000	    0.90000;
	39993	 1	 0.0	 0.0	 0.0	 0.0	 1	    1.00000	    0.00000	 69.0	 1	    1.10000	    0.90000;
	39994	 1	 0.0	 0.0	 0.0	 0.0	 1	    1.00000	    0.00000	 138.0	 1	    1.10000	    0.90000;
	39995	 1	 0.0	 0.0	 0.0	 0.0	 1	    1.00000	    0.00000	 69.0	 1	    1.10000	    0.90000;
	39996	 1	 0.0	 0.0	 0.0	 0.0	 1	    1.00000	    0.00000	 69.0	 1	    1.10000	    0.90000;
	39997	 1	 0.0	 0.0	 0.0	 0.0	 1	    1.00000	    0.00000	 69.0	 1	    1.10000	    0.90000;
	39998	 1	 0.0	 0.0	 0.0	 0.0	 1	    1.00000	    0.00000	 69.0	 1	    1.10000	    0.90000;
	39999	 1	 0.0	 0.0	 0.0	 0.0	 1	    1.00000	    0.00000	 69.0	 1	    1.10000	    0.90000;
	40000	 1	 0.0	 0.0	 0.0	 0.0	 1	    1.00000	    0.00000	 69.0	 1	    1.10000	    0.90000;
	40001	 1	 0.0	 0.0	 0.0	 0.0	 1	    1.00000	    0.00000	 69.0	 1	    1.10000	    0.90000;
	40003	 2	 0.0	 0.0	 0.0	 0.0	 1	    1.00000	    0.00000	 69.0	 1	    1.10000	    0.90000;
	40004	 1	 0.0	 0.0	 0.0	 0.0	 1	    1.00000	    0.00000	 138.0	 1	    1.10000	    0.90000;
	40005	 2	 0.0	 0.0	 0.0	 0.0	 1	    1.00000	    0.00000	 69.0	 1	    1.10000	    0.90000;
	40006	 1	 0.0	 0.0	 0.0	 0.0	 1	    1.00000	    0.00000	 69.0	 1	    1.10000	    0.90000;
	40008	 2	 0.0	 0.0	 0.0	 0.0	 1	    1.00000	    0.00000	 69.0	 1	    1.10000	    0.90000;
	40009	 1	 0.0	 0.0	 0.0	 0.0	 1	    1.00000	    0.00000	 69.0	 1	    1.10000	    0.90000;
	40011	 1	 0.0	 0.0	 0.0	 0.0	 1	    1.00000	    0.00000	 69.0	 1	    1.10000	    0.90000;
	40012	 1	 0.0	 0.0	 0.0	 0.0	 1	    1.00000	    0.00000	 69.0	 1	    1.10000	    0.90000;
	40013	 1	 0.0	 0.0	 0.0	 0.0	 1	    1.00000	    0.00000	 69.0	 1	    1.10000	    0.90000;
	40014	 1	 0.0	 0.0	 0.0	 0.0	 1	    1.00000	    0.00000	 69.0	 1	    1.10000	    0.90000;
	40015	 2	 0.0	 0.0	 0.0	 0.0	 1	    1.00000	    0.00000	 69.0	 1	    1.10000	    0.90000;
	40017	 1	 0.0	 0.0	 0.0	 0.0	 1	    1.00000	    0.00000	 69.0	 1	    1.10000	    0.90000;
	40018	 1	 0.0	 0.0	 0.0	 0.0	 1	    1.00000	    0.00000	 69.0	 1	    1.10000	    0.90000;
	40019	 1	 0.0	 0.0	 0.0	 0.0	 1	    1.00000	    0.00000	 69.0	 1	    1.10000	    0.90000;
	40021	 1	 0.0	 0.0	 0.0	 0.0	 1	    1.00000	    0.00000	 69.0	 1	    1.10000	    0.90000;
	40022	 1	 0.0	 0.0	 0.0	 0.0	 1	    1.00000	    0.00000	 69.0	 1	    1.10000	    0.90000;
	40023	 1	 0.0	 0.0	 0.0	 0.0	 1	    1.00000	    0.00000	 69.0	 1	    1.10000	    0.90000;
	40024	 1	 -12.0	 -8.0	 0.0	 0.0	 1	    1.00000	    0.00000	 69.0	 1	    1.10000	    0.90000;
	40025	 1	 0.0	 0.0	 0.0	 0.0	 1	    1.00000	    0.00000	 69.0	 1	    1.10000	    0.90000;
	40026	 1	 0.0	 0.0	 0.0	 0.0	 1	    1.00000	    0.00000	 138.0	 1	    1.10000	    0.90000;
	40027	 1	 0.0	 0.0	 0.0	 0.0	 1	    1.00000	    0.00000	 69.0	 1	    1.10000	    0.90000;
	40028	 1	 0.0	 0.0	 0.0	 0.0	 1	    1.00000	    0.00000	 69.0	 1	    1.10000	    0.90000;
	40029	 1	 0.0	 0.0	 0.0	 0.0	 1	    1.00000	    0.00000	 69.0	 1	    1.10000	    0.90000;
	40030	 1	 0.0	 0.0	 0.0	 0.0	 1	    1.00000	    0.00000	 69.0	 1	    1.10000	    0.90000;
	40034	 1	 0.0	 0.0	 0.0	 0.0	 1	    1.00000	    0.00000	 69.0	 1	    1.10000	    0.90000;
	40036	 1	 0.0	 0.0	 0.0	 0.0	 1	    1.00000	    0.00000	 69.0	 1	    1.10000	    0.90000;
	40037	 1	 0.0	 0.0	 0.0	 0.0	 1	    1.00000	    0.00000	 69.0	 1	    1.10000	    0.90000;
	40040	 1	 0.0	 0.0	 0.0	 22.2108132297	 1	    1.00000	    0.00000	 69.0	 1	    1.10000	    0.90000;
	40041	 1	 0.0	 0.0	 0.0	 0.0	 1	    1.00000	    0.00000	 69.0	 1	    1.10000	    0.90000;
	40042	 1	 0.0	 0.0	 0.0	 0.0	 1	    1.00000	    0.00000	 69.0	 1	    1.10000	    0.90000;
	40043	 1	 0.0	 0.0	 0.0	 0.0	 1	    1.00000	    0.00000	 69.0	 1	    1.10000	    0.90000;
	40044	 1	 0.0	 0.0	 0.0	 0.0	 1	    1.00000	    0.00000	 69.0	 1	    1.10000	    0.90000;
	40045	 1	 0.0	 0.0	 0.0	 0.0	 1	    1.00000	    0.00000	 69.0	 1	    1.10000	    0.90000;
	40046	 1	 0.0	 0.0	 0.0	 0.0	 1	    1.00000	    0.00000	 69.0	 1	    1.10000	    0.90000;
	40047	 1	 0.0	 0.0	 0.0	 0.0	 1	    1.00000	    0.00000	 69.0	 1	    1.10000	    0.90000;
	40048	 1	 0.0	 0.0	 0.0	 0.0	 1	    1.00000	    0.00000	 69.0	 1	    1.10000	    0.90000;
	40049	 1	 0.0	 0.0	 0.0	 0.0	 1	    1.00000	    0.00000	 69.0	 1	    1.10000	    0.90000;
	40050	 1	 0.0	 0.0	 0.0	 0.0	 1	    1.00000	    0.00000	 69.0	 1	    1.10000	    0.90000;
	40051	 1	 0.0	 0.0	 0.0	 0.0	 1	    1.00000	    0.00000	 69.0	 1	    1.10000	    0.90000;
	40052	 1	 0.0	 0.0	 0.0	 0.0	 1	    1.00000	    0.00000	 230.0	 1	    1.10000	    0.90000;
	40054	 1	 0.0	 0.0	 0.0	 0.0	 1	    1.00000	    0.00000	 69.0	 1	    1.10000	    0.90000;
	40055	 1	 0.0	 0.0	 0.0	 0.0	 1	    1.00000	    0.00000	 69.0	 1	    1.10000	    0.90000;
	40056	 2	 0.0	 0.0	 0.0	 0.0	 1	    1.00000	    0.00000	 69.0	 1	    1.10000	    0.90000;
	40057	 1	 0.0	 0.0	 0.0	 0.0	 1	    1.00000	    0.00000	 69.0	 1	    1.10000	    0.90000;
	40061	 1	 0.0	 0.0	 0.0	 0.0	 1	    1.00000	    0.00000	 69.0	 1	    1.10000	    0.90000;
	40062	 1	 0.0	 0.0	 0.0	 0.0	 1	    1.00000	    0.00000	 69.0	 1	    1.10000	    0.90000;
	40063	 1	 0.0	 0.0	 0.0	 0.0	 1	    1.00000	    0.00000	 69.0	 1	    1.10000	    0.90000;
	40064	 1	 0.0	 0.0	 0.0	 0.0	 1	    1.00000	    0.00000	 69.0	 1	    1.10000	    0.90000;
	40065	 1	 0.0	 0.0	 0.0	 0.0	 1	    1.00000	    0.00000	 69.0	 1	    1.10000	    0.90000;
	40070	 2	 0.0	 0.0	 0.0	 0.0	 1	    1.00000	    0.00000	 69.0	 1	    1.10000	    0.90000;
	40071	 1	 0.0	 0.0	 0.0	 0.0	 1	    1.00000	    0.00000	 69.0	 1	    1.10000	    0.90000;
	40074	 1	 0.0	 0.0	 0.0	 0.0	 1	    1.00000	    0.00000	 69.0	 1	    1.10000	    0.90000;
	40076	 1	 0.0	 0.0	 0.0	 0.0	 1	    1.00000	    0.00000	 69.0	 1	    1.10000	    0.90000;
	40079	 1	 0.0	 0.0	 0.0	 0.0	 1	    1.00000	    0.00000	 138.0	 1	    1.10000	    0.90000;
	40081	 2	 0.0	 0.0	 0.0	 0.0	 1	    1.00000	    0.00000	 69.0	 1	    1.10000	    0.90000;
	40086	 1	 0.0	 0.0	 0.0	 0.0	 1	    1.00000	    0.00000	 69.0	 1	    1.10000	    0.90000;
	40091	 1	 0.0	 0.0	 0.0	 0.0	 1	    1.00000	    0.00000	 69.0	 1	    1.10000	    0.90000;
	40092	 1	 0.0	 0.0	 0.0	 0.0	 1	    1.00000	    0.00000	 69.0	 1	    1.10000	    0.90000;
	40097	 1	 0.0	 0.0	 0.0	 0.0	 1	    1.00000	    0.00000	 69.0	 1	    1.10000	    0.90000;
	40098	 1	 0.0	 0.0	 0.0	 0.0	 1	    1.00000	    0.00000	 138.0	 1	    1.10000	    0.90000;
	40099	 1	 0.0	 0.0	 0.0	 0.0	 1	    1.00000	    0.00000	 138.0	 1	    1.10000	    0.90000;
	40101	 1	 0.0	 0.0	 0.0	 0.0	 1	    1.00000	    0.00000	 69.0	 1	    1.10000	    0.90000;
	40102	 1	 0.0	 0.0	 0.0	 0.0	 1	    1.00000	    0.00000	 69.0	 1	    1.10000	    0.90000;
	40108	 1	 0.0	 0.0	 0.0	 0.0	 1	    1.00000	    0.00000	 69.0	 1	    1.10000	    0.90000;
	40109	 1	 0.0	 0.0	 0.0	 0.0	 1	    1.00000	    0.00000	 69.0	 1	    1.10000	    0.90000;
	40110	 1	 0.0	 0.0	 0.0	 0.0	 1	    1.00000	    0.00000	 69.0	 1	    1.10000	    0.90000;
	40111	 1	 241.2	 49.8	 0.0	 0.0	 1	    1.00000	    0.00000	 69.0	 1	    1.10000	    0.90000;
	40112	 1	 0.0	 0.0	 0.0	 0.0	 1	    1.00000	    0.00000	 69.0	 1	    1.10000	    0.90000;
	40113	 1	 0.0	 0.0	 0.0	 0.0	 1	    1.00000	    0.00000	 69.0	 1	    1.10000	    0.90000;
	40114	 1	 0.0	 0.0	 0.0	 0.0	 1	    1.00000	    0.00000	 230.0	 1	    1.10000	    0.90000;
	40115	 1	 0.0	 0.0	 0.0	 0.0	 1	    1.00000	    0.00000	 69.0	 1	    1.10000	    0.90000;
	40116	 1	 0.0	 0.0	 0.0	 0.0	 1	    1.00000	    0.00000	 69.0	 1	    1.10000	    0.90000;
	40118	 1	 0.0	 0.0	 0.0	 0.0	 1	    1.00000	    0.00000	 69.0	 1	    1.10000	    0.90000;
	40119	 1	 0.0	 0.0	 0.0	 0.0	 1	    1.00000	    0.00000	 69.0	 1	    1.10000	    0.90000;
	40120	 1	 0.0	 0.0	 0.0	 0.0	 1	    1.00000	    0.00000	 69.0	 1	    1.10000	    0.90000;
	40121	 1	 0.0	 0.0	 0.0	 0.0	 1	    1.00000	    0.00000	 69.0	 1	    1.10000	    0.90000;
	40122	 1	 0.0	 0.0	 0.0	 0.0	 1	    1.00000	    0.00000	 69.0	 1	    1.10000	    0.90000;
	40123	 1	 0.0	 0.0	 0.0	 0.0	 1	    1.00000	    0.00000	 69.0	 1	    1.10000	    0.90000;
	40125	 1	 0.0	 0.0	 0.0	 0.0	 1	    1.00000	    0.00000	 69.0	 1	    1.10000	    0.90000;
	40126	 1	 0.0	 0.0	 0.0	 0.0	 1	    1.00000	    0.00000	 69.0	 1	    1.10000	    0.90000;
	40127	 1	 0.0	 0.0	 0.0	 0.0	 1	    1.00000	    0.00000	 69.0	 1	    1.10000	    0.90000;
	40128	 1	 0.0	 0.0	 0.0	 0.0	 1	    1.00000	    0.00000	 69.0	 1	    1.10000	    0.90000;
	40129	 1	 0.0	 0.0	 0.0	 0.0	 1	    1.00000	    0.00000	 69.0	 1	    1.10000	    0.90000;
	40130	 1	 0.0	 0.0	 0.0	 0.0	 1	    1.00000	    0.00000	 69.0	 1	    1.10000	    0.90000;
	40131	 1	 0.0	 0.0	 0.0	 0.0	 1	    1.00000	    0.00000	 69.0	 1	    1.10000	    0.90000;
	40132	 1	 0.0	 0.0	 0.0	 0.0	 1	    1.00000	    0.00000	 69.0	 1	    1.10000	    0.90000;
	40133	 1	 0.0	 0.0	 0.0	 0.0	 1	    1.00000	    0.00000	 69.0	 1	    1.10000	    0.90000;
	40135	 1	 0.0	 0.0	 0.0	 0.0	 1	    1.00000	    0.00000	 69.0	 1	    1.10000	    0.90000;
	40137	 1	 0.0	 0.0	 0.0	 0.0	 1	    1.00000	    0.00000	 69.0	 1	    1.10000	    0.90000;
	40138	 1	 0.0	 0.0	 0.0	 0.0	 1	    1.00000	    0.00000	 69.0	 1	    1.10000	    0.90000;
	40139	 1	 0.0	 0.0	 0.0	 0.0	 1	    1.00000	    0.00000	 138.0	 1	    1.10000	    0.90000;
	40141	 1	 0.0	 0.0	 0.0	 0.0	 1	    1.00000	    0.00000	 69.0	 1	    1.10000	    0.90000;
	40144	 1	 0.0	 0.0	 0.0	 0.0	 1	    1.00000	    0.00000	 69.0	 1	    1.10000	    0.90000;
	40145	 2	 0.0	 0.0	 0.0	 0.0	 1	    1.00000	    0.00000	 69.0	 1	    1.10000	    0.90000;
	40147	 1	 0.0	 0.0	 0.0	 0.0	 1	    1.00000	    0.00000	 69.0	 1	    1.10000	    0.90000;
	40150	 1	 0.0	 0.0	 0.0	 0.0	 1	    1.00000	    0.00000	 69.0	 1	    1.10000	    0.90000;
	40158	 1	 0.0	 0.0	 0.0	 0.0	 1	    1.00000	    0.00000	 138.0	 1	    1.10000	    0.90000;
	40162	 1	 0.0	 0.0	 0.0	 0.0	 1	    1.00000	    0.00000	 69.0	 1	    1.10000	    0.90000;
	40172	 1	 41.604	 9.288	 0.0	 0.0	 1	    1.00000	    0.00000	 69.0	 1	    1.10000	    0.90000;
	40179	 1	 16.596	 2.365	 0.0	 0.0	 1	    1.00000	    0.00000	 69.0	 1	    1.10000	    0.90000;
	40180	 1	 2.208	 0.315	 0.0	 0.0	 1	    1.00000	    0.00000	 69.0	 1	    1.10000	    0.90000;
	40181	 1	 2.904	 0.59	 0.0	 0.0	 1	    1.00000	    0.00000	 69.0	 1	    1.10000	    0.90000;
	40183	 1	 9.804	 2.457	 0.0	 0.0	 1	    1.00000	    0.00000	 69.0	 1	    1.10000	    0.90000;
	40186	 1	 111.724	 31.671	 0.0	 0.0	 1	    1.00000	    0.00000	 69.0	 1	    1.10000	    0.90000;
	40189	 1	 32.124	 8.184	 0.0	 0.0	 1	    1.00000	    0.00000	 69.0	 1	    1.10000	    0.90000;
	40197	 1	 15.81	 3.21	 0.0	 0.0	 1	    1.00000	    0.00000	 138.0	 1	    1.10000	    0.90000;
	40198	 1	 21.63	 6.23	 0.0	 0.0	 1	    1.00000	    0.00000	 69.0	 1	    1.10000	    0.90000;
	40201	 1	 34.85	 7.077	 0.0	 0.0	 1	    1.00000	    0.00000	 69.0	 1	    1.10000	    0.90000;
...
];

%% generator data
%	bus	Pg	Qg	Qmax	Qmin	Vg	mBase	status	Pmax	Pmin
mpc.gen = [
	39880	 53.8	 15.1	 96.9	 -66.7	 1.0	 100.0	 1	 107.6	 0.0;
	39896	 12.7	 0.0	 44.1	 -44.1	 1.0	 100.0	 1	 25.4	 0.0;
	39908	 35.0	 5.95	 38.2	 -26.3	 1.0	 100.0	 1	 64.0	 6.0;
	39908	 35.0	 5.95	 38.2	 -26.3	 1.0	 100.0	 1	 64.0	 6.0;
	40003	 33.0	 0.0	 25.6	 -25.6	 1.0	 100.0	 1	 64.0	 2.0;
	40005	 43.365	 10.05	 44.6	 -24.5	 1.0	 100.0	 1	 61.0	 25.73;
	40005	 64.04	 14.85	 66.0	 -36.3	 1.0	 100.0	 1	 90.0	 38.08;
	40008	 40.5	 5.35	 34.4	 -23.7	 1.0	 100.0	 1	 61.0	 20.0;
	40015	 35.0	 4.85	 31.2	 -21.5	 1.0	 100.0	 1	 54.0	 16.0;
	40015	 35.0	 4.85	 31.2	 -21.5	 1.0	 100.0	 1	 54.0	 16.0;
	40015	 35.0	 4.85	 31.2	 -21.5	 1.0	 100.0	 1	 54.0	 16.0;
	40015	 25.0	 11.25	 40.5	 -18.0	 1.0	 100.0	 1	 46.0	 4.0;
	40015	 25.0	 11.25	 40.5	 -18.0	 1.0	 100.0	 1	 46.0	 4.0;
	40056	 20.45	 0.0	 45.6	 -45.6	 1.0	 100.0	 1	 40.9	 0.0;
	40070	 33.75	 13.65	 49.1	 -21.8	 1.0	 100.0	 1	 55.0	 12.5;
	40070	 28.0	 11.25	 40.5	 -18.0	 1.0	 100.0	 1	 46.0	 10.0;
	40081	 20.5	 10.25	 36.8	 -16.3	 1.0	 100.0	 1	 40.0	 1.0;
	40145	 23.0	 3.15	 20.2	 -13.9	 1.0	 100.0	 1	 36.0	 10.0;
	75435	 437.5	 61.3	 393.2	 -270.6	 1.0	 100.0	 1	 600.0	 275.0;
	75437	 406.0	 52.5	 337.0	 -232.0	 1.0	 100.0	 1	 562.0	 250.0;
	75439	 310.5	 0.0	 223.3	 -223.3	 1.0	 100.0	 1	 561.0	 60.0;
	75440	 113.5	 31.3	 135.4	 -72.8	 1.0	 100.0	 1	 182.0	 45.0;
	75442	 32.25	 15.05	 96.7	 -66.6	 1.0	 100.0	 1	 64.5	 0.0;
	75444	 140.0	 27.25	 118.0	 -63.5	 1.0	 100.0	 1	 160.0	 120.0;
	75444	 139.5	 27.25	 118.0	 -63.5	 1.0	 100.0	 1	 159.0	 120.0;
	75444	 109.5	 28.0	 121.2	 -65.2	 1.0	 100.0	 1	 164.0	 55.0;
	75446	 61.105	 13.2	 84.7	 -58.3	 1.0	 100.0	 1	 122.21	 0.0;
	75448	 121.5	 24.85	 107.5	 -57.8	 1.0	 100.0	 1	 148.0	 95.0;
	75448	 121.5	 24.85	 107.5	 -57.8	 1.0	 100.0	 1	 148.0	 95.0;
	75448	 130.0	 36.7	 158.7	 -85.3	 1.0	 100.0	 1	 197.0	 63.0;
	75450	 42.15	 0.0	 67.5	 -67.5	 1.0	 100.0	 1	 84.3	 0.0;
	75451	 63.75	 0.0	 66.1	 -66.1	 1.0	 100.0	 1	 127.5	 0.0;
	75454	 0.17	 0.0	 66.1	 -66.1	 1.0	 100.0	 1	 0.34	 0.0;
	75457	 3.52	 0.0	 66.1	 -66.1	 1.0	 100.0	 1	 7.04	 0.0;
	75458	 42.25	 0.0	 66.1	 -66.1	 1.0	 100.0	 1	 84.5	 0.0;
	75459	 90.5	 21.05	 91.1	 -49.0	 1.0	 100.0	 1	 116.0	 65.0;
	75459	 184.0	 26.35	 169.1	 -116.4	 1.0	 100.0	 1	 278.0	 90.0;
	75459	 312.5	 44.1	 282.9	 -194.7	 1.0	 100.0	 1	 375.0	 250.0;
	75461	 72.5	 19.5	 84.3	 -45.3	 1.0	 100.0	 1	 115.0	 30.0;
	75465	 28.125	 0.0	 49.6	 -49.6	 1.0	 100.0	 1	 56.25	 0.0;
	75466	 38.35	 0.0	 44.1	 -44.1	 1.0	 100.0	 1	 76.7	 0.0;
	75467	 33.3	 0.0	 43.7	 -43.7	 1.0	 100.0	 1	 66.6	 0.0;
	75468	 38.61	 7.45	 47.9	 -33.0	 1.0	 100.0	 1	 77.22	 0.0;
	75470	 44.45	 0.0	 43.2	 -43.2	 1.0	 100.0	 1	 88.9	 0.0;
	75482	 54.0	 15.05	 65.1	 -35.0	 1.0	 100.0	 1	 88.0	 20.0;
	75482	 32.0	 10.75	 46.5	 -25.0	 1.0	 100.0	 1	 64.0	 0.0;
	75484	 33.5	 5.4	 34.5	 -23.7	 1.0	 100.0	 1	 61.0	 6.0;
	75484	 40.0	 6.7	 43.1	 -29.7	 1.0	 100.0	 1	 74.0	 6.0;
	75484	 46.5	 7.85	 50.3	 -34.6	 1.0	 100.0	 1	 87.0	 6.0;
	75486	 41.0	 8.65	 37.5	 -20.2	 1.0	 100.0	 1	 52.0	 30.0;
	75486	 41.0	 8.65	 37.5	 -20.2	 1.0	 100.0	 1	 52.0	 30.0;
	75486	 40.5	 8.65	 37.5	 -20.2	 1.0	 100.0	 1	 51.0	 30.0;
	75488	 11.725	 0.0	 54.2	 -54.2	 1.0	 100.0	 1	 23.45	 0.0;
	75493	 32.5	 7.05	 30.4	 -16.3	 1.0	 100.0	 1	 40.0	 25.0;
	75493	 53.5	 11.7	 50.6	 -27.2	 1.0	 100.0	 1	 67.0	 40.0;
	75493	 505.0	 69.65	 446.8	 -307.5	 1.0	 100.0	 1	 645.0	 365.0;
	75493	 475.0	 54.8	 351.5	 -241.9	 1.0	 100.0	 1	 600.0	 350.0;
	75497	 20.0	 3.15	 20.1	 -13.8	 1.0	 100.0	 1	 34.0	 6.0;
	75497	 20.0	 3.15	 20.1	 -13.8	 1.0	 100.0	 1	 34.0	 6.0;
	75497	 44.0	 7.35	 47.0	 -32.3	 1.0	 100.0	 1	 82.0	 6.0;
	75500	 22.56	 5.35	 23.2	 -12.5	 1.0	 100.0	 1	 32.0	 13.12;
	75500	 157.45	 20.7	 132.9	 -91.5	 1.0	 100.0	 1	 218.0	 96.9;
	75502	 22.56	 5.1	 22.7	 -12.5	 1.0	 100.0	 1	 32.0	 13.12;
	75502	 22.0	 5.35	 23.2	 -12.5	 1.0	 100.0	 1	 32.0	 12.0;
	75503	 45.5	 5.35	 34.5	 -23.8	 1.0	 100.0	 1	 61.0	 30.0;
	75503	 23.5	 5.35	 23.2	 -12.5	 1.0	 100.0	 1	 32.0	 15.0;
	75507	 11.65	 13.95	 89.6	 -61.7	 1.0	 100.0	 1	 23.3	 0.0;
	75511	 10.56	 0.0	 58.2	 -58.2	 1.0	 100.0	 1	 21.12	 0.0;
	75513	 96.5	 25.15	 108.8	 -58.5	 1.0	 100.0	 1	 148.0	 45.0;
	75513	 42.0	 10.75	 46.5	 -25.0	 1.0	 100.0	 1	 64.0	 20.0;
	75514	 23.0	 5.35	 23.2	 -12.5	 1.0	 100.0	 1	 32.0	 14.0;
	75517	 81.0	 21.3	 92.2	 -49.6	 1.0	 100.0	 1	 117.0	 45.0;
	75517	 26.1	 7.15	 31.0	 -16.7	 1.0	 100.0	 1	 43.0	 9.2;
	75519	 17.655	 0.0	 70.8	 -70.8	 1.0	 100.0	 1	 35.31	 0.0;
	75523	 821.8	 92.45	 593.2	 -408.3	 1.0	 100.0	 1	 986.0	 657.6;
	75524	 822.05	 92.45	 593.2	 -408.3	 1.0	 100.0	 1	 986.0	 658.1;
	75529	 564.0	 88.35	 566.7	 -390.0	 1.0	 100.0	 1	 993.0	 135.0;
	75529	 563.5	 88.35	 566.7	 -390.0	 1.0	 100.0	 1	 993.0	 134.0;
	75533	 633.55	 85.95	 551.3	 -379.4	 1.0	 100.0	 1	 969.0	 298.1;
	75537	 475.0	 0.0	 349.3	 -349.3	 1.0	 100.0	 1	 800.0	 150.0;
	75537	 475.0	 0.0	 349.3	 -349.3	 1.0	 100.0	 1	 800.0	 150.0;
	75538	 466.0	 0.0	 349.3	 -349.3	 1.0	 100.0	 1	 800.0	 132.0;
	75538	 466.0	 0.0	 349.3	 -349.3	 1.0	 100.0	 1	 800.0	 132.0;
	75541	 467.5	 67.4	 432.4	 -297.6	 1.0	 100.0	 1	 610.0	 325.0;
	75541	 467.5	 67.4	 432.4	 -297.6	 1.0	 100.0	 1	 610.0	 325.0;
	75543	 340.5	 49.85	 319.7	 -220.0	 1.0	 100.0	 1	 561.0	 120.0;
	75543	 333.5	 49.85	 319.7	 -220.0	 1.0	 100.0	 1	 547.0	 120.0;
	75546	 412.5	 49.8	 319.4	 -219.8	 1.0	 100.0	 1	 585.0	 240.0;
	75546	 390.0	 49.8	 319.4	 -219.8	 1.0	 100.0	 1	 540.0	 240.0;
	75549	 403.0	 47.9	 307.3	 -211.5	 1.0	 100.0	 1	 556.0	 250.0;
	75549	 387.5	 47.9	 307.3	 -211.5	 1.0	 100.0	 1	 525.0	 250.0;
	75549	 387.5	 89.5	 387.4	 -208.4	 1.0	 100.0	 1	 525.0	 250.0;
	75551	 412.5	 46.6	 299.0	 -205.8	 1.0	 100.0	 1	 525.0	 300.0;
	75553	 213.0	 36.8	 236.3	 -162.7	 1.0	 100.0	 1	 331.0	 95.0;
	75555	 287.5	 63.15	 273.3	 -147.0	 1.0	 100.0	 1	 330.0	 245.0;
	75558	 259.0	 55.7	 241.0	 -129.6	 1.0	 100.0	 1	 318.0	 200.0;
	75558	 408.0	 46.55	 298.6	 -205.5	 1.0	 100.0	 1	 506.0	 310.0;
	75559	 21.5	 5.45	 23.6	 -12.7	 1.0	 100.0	 1	 33.0	 10.0;
	75559	 21.5	 5.45	 23.6	 -12.7	 1.0	 100.0	 1	 33.0	 10.0;
	75559	 21.5	 5.45	 23.6	 -12.7	 1.0	 100.0	 1	 33.0	 10.0;
	75559	 21.0	 5.45	 23.6	 -12.7	 1.0	 100.0	 1	 32.0	 10.0;
	75559	 228.3	 51.1	 226.9	 -124.7	 1.0	 100.0	 1	 307.0	 149.6;
	75560	 197.0	 51.65	 223.4	 -120.1	 1.0	 100.0	 1	 299.0	 95.0;
	75562	 200.0	 46.75	 202.3	 -108.8	 1.0	 100.0	 1	 270.0	 130.0;
	75562	 213.5	 50.9	 220.2	 -118.4	 1.0	 100.0	 1	 297.0	 130.0;
	75565	 42.25	 22.65	 145.3	 -100.0	 1.0	 100.0	 1	 84.5	 0.0;
	75567	 141.665	 29.2	 138.2	 -79.8	 1.0	 100.0	 1	 190.0	 93.33;
	75567	 220.62	 48.9	 217.2	 -119.4	 1.0	 100.0	 1	 298.0	 143.24;
	75568	 152.0	 16.85	 108.1	 -74.4	 1.0	 100.0	 1	 186.0	 118.0;
	75568	 54.5	 9.4	 45.8	 -27.0	 1.0	 100.0	 1	 67.0	 42.0;
	75568	 77.0	 16.25	 70.4	 -37.9	 1.0	 100.0	 1	 96.0	 58.0;
	75569	 72.8625	 16.4	 105.3	 -72.5	 1.0	 100.0	 1	 145.725	 0.0;
	75570	 147.0	 27.4	 118.5	 -63.7	 1.0	 100.0	 1	 160.0	 134.0;
	75570	 162.0	 30.05	 130.1	 -70.0	 1.0	 100.0	 1	 177.0	 147.0;
	75572	 43.0	 15.1	 96.9	 -66.7	 1.0	 100.0	 1	 86.0	 0.0;
	75574	 137.5	 28.5	 123.3	 -66.3	 1.0	 100.0	 1	 175.0	 100.0;
	75576	 45.54	 14.95	 95.9	 -66.0	 1.0	 100.0	 1	 91.08	 0.0;
	75576	 64.35	 14.95	 95.9	 -66.0	 1.0	 100.0	 1	 128.7	 0.0;
	75581	 113.82	 34.45	 130.1	 -61.2	 1.0	 100.0	 1	 156.0	 71.64;
	75581	 116.06	 35.15	 132.8	 -62.5	 1.0	 100.0	 1	 159.0	 73.12;
	75581	 167.0	 42.85	 185.4	 -99.7	 1.0	 100.0	 1	 239.0	 95.0;
	75581	 342.5	 85.7	 370.9	 -199.5	 1.0	 100.0	 1	 505.0	 180.0;
	75582	 100.0	 26.25	 113.6	 -61.1	 1.0	 100.0	 1	 153.0	 47.0;
	75582	 100.0	 26.25	 113.6	 -61.1	 1.0	 100.0	 1	 153.0	 47.0;
	75582	 101.5	 26.25	 113.6	 -61.1	 1.0	 100.0	 1	 156.0	 47.0;
	75582	 100.0	 26.25	 113.6	 -61.1	 1.0	 100.0	 1	 153.0	 47.0;
	75582	 101.5	 26.25	 113.6	 -61.1	 1.0	 100.0	 1	 156.0	 47.0;
	75582	 101.5	 26.25	 113.6	 -61.1	 1.0	 100.0	 1	 156.0	 47.0;
	75584	 121.0	 25.8	 111.6	 -60.0	 1.0	 100.0	 1	 152.0	 90.0;
	75584	 121.5	 25.8	 111.6	 -60.0	 1.0	 100.0	 1	 153.0	 90.0;
	75586	 125.0	 25.55	 110.6	 -59.5	 1.0	 100.0	 1	 150.0	 100.0;
	75586	 161.0	 49.45	 213.9	 -115.0	 1.0	 100.0	 1	 272.0	 50.0;
	75587	 116.5	 22.6	 97.9	 -52.7	 1.0	 100.0	 1	 133.0	 100.0;
	75587	 116.5	 22.6	 97.9	 -52.7	 1.0	 100.0	 1	 133.0	 100.0;
	75588	 122.5	 0.0	 0.0	 0.0	 1.0	 100.0	 1	 145.0	 100.0;
	75589	 16.05	 0.0	 66.1	 -66.1	 1.0	 100.0	 1	 32.1	 0.0;
	75592	 93.0	 19.5	 84.3	 -45.3	 1.0	 100.0	 1	 116.0	 70.0;
	75592	 184.5	 40.15	 173.8	 -93.5	 1.0	 100.0	 1	 229.0	 140.0;
	75592	 239.0	 52.1	 225.5	 -121.3	 1.0	 100.0	 1	 303.0	 175.0;
	75593	 102.0	 10.2	 65.4	 -45.0	 1.0	 100.0	 1	 115.0	 89.0;
	75593	 102.0	 10.2	 65.4	 -45.0	 1.0	 100.0	 1	 115.0	 89.0;
	75595	 90.5	 10.2	 65.4	 -45.0	 1.0	 100.0	 1	 115.0	 66.0;
	75595	 90.0	 10.2	 65.4	 -45.0	 1.0	 100.0	 1	 114.0	 66.0;
	75598	 109.0	 10.2	 65.4	 -45.0	 1.0	 100.0	 1	 114.0	 104.0;
	75598	 109.5	 10.2	 65.4	 -45.0	 1.0	 100.0	 1	 115.0	 104.0;
	75598	 109.5	 10.2	 65.4	 -45.0	 1.0	 100.0	 1	 115.0	 104.0;
	75598	 109.0	 10.2	 65.4	 -45.0	 1.0	 100.0	 1	 114.0	 104.0;
	75599	 73.5	 16.35	 70.7	 -38.0	 1.0	 100.0	 1	 97.0	 50.0;
	75599	 68.0	 16.35	 70.7	 -38.0	 1.0	 100.0	 1	 97.0	 39.0;
	75599	 68.0	 16.35	 70.7	 -38.0	 1.0	 100.0	 1	 97.0	 39.0;
	75599	 68.0	 16.35	 70.7	 -38.0	 1.0	 100.0	 1	 97.0	 39.0;
	75601	 72.0	 16.35	 70.7	 -38.0	 1.0	 100.0	 1	 97.0	 47.0;
	75601	 72.0	 16.35	 70.7	 -38.0	 1.0	 100.0	 1	 97.0	 47.0;
	75601	 72.0	 16.35	 70.7	 -38.0	 1.0	 100.0	 1	 97.0	 47.0;
	75602	 63.0	 16.1	 69.7	 -37.5	 1.0	 100.0	 1	 91.0	 35.0;
	75602	 212.5	 55.5	 240.2	 -129.2	 1.0	 100.0	 1	 310.0	 115.0;
	75603	 44.1	 0.0	 45.0	 -45.0	 1.0	 100.0	 1	 88.2	 0.0;
	75607	 32.16	 0.0	 44.3	 -44.3	 1.0	 100.0	 1	 64.32	 0.0;
	75608	 32.05	 0.0	 44.3	 -44.3	 1.0	 100.0	 1	 64.1	 0.0;
	75611	 130.0	 15.65	 100.4	 -69.1	 1.0	 100.0	 1	 170.0	 90.0;
	75611	 62.0	 0.0	 29.6	 -29.6	 1.0	 100.0	 1	 76.0	 48.0;
	75611	 62.0	 6.8	 43.7	 -30.1	 1.0	 100.0	 1	 76.0	 48.0;
	75611	 131.5	 32.95	 142.6	 -76.7	 1.0	 100.0	 1	 188.0	 75.0;
	75612	 59.5	 12.75	 55.2	 -29.7	 1.0	 100.0	 1	 74.0	 45.0;
	75612	 59.5	 12.75	 55.2	 -29.7	 1.0	 100.0	 1	 74.0	 45.0;
	75612	 60.5	 12.75	 55.2	 -29.7	 1.0	 100.0	 1	 76.0	 45.0;
	75612	 60.5	 12.75	 55.2	 -29.7	 1.0	 100.0	 1	 76.0	 45.0;
	75614	 59.5	 12.4	 53.6	 -28.8	 1.0	 100.0	 1	 74.0	 45.0;
	75614	 59.5	 12.4	 53.6	 -28.8	 1.0	 100.0	 1	 74.0	 45.0;
	75614	 59.5	 12.4	 53.6	 -28.8	 1.0	 100.0	 1	 74.0	 45.0;
	75614	 59.5	 12.4	 53.6	 -28.8	 1.0	 100.0	 1	 74.0	 45.0;
	75614	 58.5	 12.4	 53.6	 -28.8	 1.0	 100.0	 1	 72.0	 45.0;
	75614	 59.5	 12.4	 53.6	 -28.8	 1.0	 100.0	 1	 74.0	 45.0;
	75614	 58.5	 12.4	 53.6	 -28.8	 1.0	 100.0	 1	 72.0	 45.0;
	75614	 58.5	 12.4	 53.6	 -28.8	 1.0	 100.0	 1	 72.0	 45.0;
	75615	 44.5	 15.65	 56.3	 -25.0	 1.0	 100.0	 1	 64.0	 25.0;
	75615	 135.0	 33.1	 143.3	 -77.1	 1.0	 100.0	 1	 190.0	 80.0;
	75618	 45.5	 10.15	 44.0	 -23.7	 1.0	 100.0	 1	 59.0	 32.0;
	75618	 44.5	 10.15	 44.0	 -23.7	 1.0	 100.0	 1	 57.0	 32.0;
	75618	 46.5	 10.15	 44.0	 -23.7	 1.0	 100.0	 1	 61.0	 32.0;
	75618	 46.5	 10.15	 44.0	 -23.7	 1.0	 100.0	 1	 61.0	 32.0;
	75618	 45.5	 10.15	 44.0	 -23.7	 1.0	 100.0	 1	 59.0	 32.0;
	75618	 46.5	 10.15	 44.0	 -23.7	 1.0	 100.0	 1	 61.0	 32.0;
	75621	 28.5	 8.75	 37.8	 -20.3	 1.0	 100.0	 1	 52.0	 5.0;
	75621	 82.0	 9.4	 60.5	 -41.7	 1.0	 100.0	 1	 97.0	 67.0;
	75623	 41.5	 8.6	 37.2	 -20.0	 1.0	 100.0	 1	 51.0	 32.0;
	75623	 41.5	 8.6	 37.2	 -20.0	 1.0	 100.0	 1	 51.0	 32.0;
	75623	 42.0	 8.65	 37.5	 -20.2	 1.0	 100.0	 1	 52.0	 32.0;
	75623	 42.0	 8.65	 37.5	 -20.2	 1.0	 100.0	 1	 52.0	 32.0;
	75623	 42.0	 8.65	 37.5	 -20.2	 1.0	 100.0	 1	 52.0	 32.0;
	75623	 42.0	 8.65	 37.5	 -20.2	 1.0	 100.0	 1	 52.0	 32.0;
	75623	 42.0	 8.65	 37.5	 -20.2	 1.0	 100.0	 1	 52.0	 32.0;
	75623	 42.0	 8.65	 37.5	 -20.2	 1.0	 100.0	 1	 52.0	 32.0;
	75625	 31.75	 8.45	 36.5	 -19.6	 1.0	 100.0	 1	 51.0	 12.5;
	75625	 31.75	 8.45	 36.5	 -19.6	 1.0	 100.0	 1	 51.0	 12.5;
	75625	 31.75	 8.45	 36.5	 -19.6	 1.0	 100.0	 1	 51.0	 12.5;
	75625	 31.25	 8.45	 36.5	 -19.6	 1.0	 100.0	 1	 50.0	 12.5;
	75625	 31.25	 8.45	 36.5	 -19.6	 1.0	 100.0	 1	 50.0	 12.5;
	75625	 30.75	 8.45	 36.5	 -19.6	 1.0	 100.0	 1	 49.0	 12.5;
	75626	 32.0	 7.25	 31.5	 -17.0	 1.0	 100.0	 1	 44.0	 20.0;
...
];

%% generator cost data
%	2	startup	shutdown	n	c(n-1)	...	c0
mpc.gencost = [
	2	 0.0	 0.0	 3	   0.000000	   0.000000	   0.000000;
2	0.0	0.0	3	0.2	0.000391	0.000000;
2	0.0	0.0	3	0.2	21.680000	-14.320000;
2	0.0	0.0	3	0.2	21.680000	-14.320000;
2	0.0	0.0	3	0.2	24.720000	-27.310000;
2	0.0	0.0	3	0.2	32.210000	-53.610000;
2	0.0	0.0	3	0.2	35.280000	-116.900000;
2	0.0	0.0	3	0.2	22.070000	-30.980000;
2	0.0	0.0	3	0.2	17.330000	-40.960000;
2	0.0	0.0	3	0.2	17.330000	-40.960000;
2	0.0	0.0	3	0.2	17.330000	-40.960000;
2	0.0	0.0	3	0.2	16.710000	-19.400000;
2	0.0	0.0	3	0.2	16.710000	-19.400000;
2	0.0	0.0	3	0.2	0.000243	0.000000;
2	0.0	0.0	3	0.2	25.270000	-64.550000;
2	0.0	0.0	3	0.2	24.580000	-44.310000;
2	0.0	0.0	3	0.2	21.410000	-12.810000;
2	0.0	0.0	3	0.2	22.720000	-18.190000;
	2	 0.0	 0.0	 3	   0.003992	  24.190000	  -1.790000;
	2	 0.0	 0.0	 3	   0.008982	  20.780000	  -3.640000;
	2	 0.0	 0.0	 3	   0.002996	   3.393000	   0.000000;
	2	 0.0	 0.0	 3	   0.016920	  27.110000	  -1.372000;
2	0.0	0.0	3	0.2	0.000155	0.000000;
2	0.0	0.0	3	0.2	30.800000	-365.000000;
2	0.0	0.0	3	0.2	30.780000	-362.200000;
	2	 0.0	 0.0	 3	   0.017900	  25.680000	  -1.621000;
	2	 0.0	 0.0	 3	   0.000000	   0.000000	   0.000000;
2	0.0	0.0	3	0.2	22.170000	-509.800000;
2	0.0	0.0	3	0.2	22.170000	-509.800000;
	2	 0.0	 0.0	 3	   0.032850	  15.600000	  -3.428000;
2	0.0	0.0	3	0.2	0.000118	0.000000;
	2	 0.0	 0.0	 3	   0.000000	   0.000000	   0.000000;
2	0.0	0.0	3	0.2	0.018520	0.000000;
2	0.0	0.0	3	0.2	0.001381	0.000000;
2	0.0	0.0	3	0.2	0.000118	0.000000;
2	0.0	0.0	3	0.2	19.650000	-138.000000;
	2	 0.0	 0.0	 3	   0.005980	  18.500000	   0.000000;
2	0.0	0.0	3	0.2	20.010000	-611.700000;
2	0.0	0.0	3	0.2	26.010000	-70.960000;
2	0.0	0.0	3	0.2	0.000177	0.000000;
2	0.0	0.0	3	0.2	0.000130	0.000000;
2	0.0	0.0	3	0.2	0.000150	0.000000;
2	0.0	0.0	3	0.2	0.000129	0.000000;
2	0.0	0.0	3	0.2	0.000112	0.000000;
2	0.0	0.0	3	0.2	33.010000	-78.110000;
2	0.0	0.0	3	0.2	31.660000	0.000000;
2	0.0	0.0	3	0.2	24.910000	-20.830000;
2	0.0	0.0	3	0.2	25.190000	-29.370000;
2	0.0	0.0	3	0.2	25.480000	-39.350000;
2	0.0	0.0	3	0.2	20.370000	-67.180000;
2	0.0	0.0	3	0.2	20.370000	-67.180000;
2	0.0	0.0	3	0.2	20.320000	-65.500000;
2	0.0	0.0	3	0.2	0.000423	0.000000;
2	0.0	0.0	3	0.2	25.600000	-25.460000;
2	0.0	0.0	3	0.2	25.250000	-69.140000;
	2	 0.0	 0.0	 3	   0.002993	  16.880000	  -1.974000;
	2	 0.0	 0.0	 3	   0.002993	  18.510000	  -1.943000;
2	0.0	0.0	3	0.2	19.620000	-12.570000;
2	0.0	0.0	3	0.2	19.620000	-12.570000;
2	0.0	0.0	3	0.2	22.790000	-20.460000;
2	0.0	0.0	3	0.2	32.740000	-14.500000;
2	0.0	0.0	3	0.2	28.270000	-183.300000;
2	0.0	0.0	3	0.2	29.090000	-11.820000;
2	0.0	0.0	3	0.2	22.540000	-11.220000;
2	0.0	0.0	3	0.2	29.210000	-63.390000;
2	0.0	0.0	3	0.2	26.670000	-16.910000;
2	0.0	0.0	3	0.2	0.000425	0.000000;
2	0.0	0.0	3	0.2	0.000469	0.000000;
	2	 0.0	 0.0	 3	   0.018890	  24.140000	  -1.432000;
2	0.0	0.0	3	0.2	30.880000	-53.580000;
2	0.0	0.0	3	0.2	27.160000	-16.200000;
2	0.0	0.0	3	0.2	29.590000	-110.700000;
2	0.0	0.0	3	0.2	29.140000	-18.180000;
2	0.0	0.0	3	0.2	0.000282	0.000000;
2	0.0	0.0	3	0.2	4.457000	-705.100000;
	2	 0.0	 0.0	 3	   0.005989	   2.727000	  -8.546000;
	2	 0.0	 0.0	 3	   0.003997	   3.082000	  -1.356000;
	2	 0.0	 0.0	 3	   0.003997	   3.082000	  -1.353000;
	2	 0.0	 0.0	 3	   0.000999	   2.509000	   0.000000;
	2	 0.0	 0.0	 3	   0.000999	   2.908000	   0.000000;
	2	 0.0	 0.0	 3	   0.000999	   2.908000	   0.000000;
	2	 0.0	 0.0	 3	   0.000999	   3.250000	   0.000000;
	2	 0.0	 0.0	 3	   0.000999	   3.250000	   0.000000;
	2	 0.0	 0.0	 3	   0.004989	  28.550000	  -2.813000;
	2	 0.0	 0.0	 3	   0.004989	  26.970000	  -2.813000;
	2	 0.0	 0.0	 3	   0.006990	  24.990000	  -1.601000;
	2	 0.0	 0.0	 3	   0.006990	  28.610000	  -1.581000;
	2	 0.0	 0.0	 3	   0.001996	  30.170000	   0.000000;
	2	 0.0	 0.0	 3	   0.001996	  33.070000	   0.000000;
	2	 0.0	 0.0	 3	   0.001996	  29.630000	   0.000000;
2	0.0	0.0	3	0.2	32.940000	-317.200000;
2	0.0	0.0	3	0.2	29.500000	-317.200000;
	2	 0.0	 0.0	 3	   0.007978	  30.420000	  -4.370000;
	2	 0.0	 0.0	 3	   0.005984	  20.480000	   0.000000;
2	0.0	0.0	3	0.2	29.170000	-171.200000;
2	0.0	0.0	3	0.2	27.100000	-140.500000;
2	0.0	0.0	3	0.2	25.820000	-349.200000;
2	0.0	0.0	3	0.2	47.090000	-5.802000;
2	0.0	0.0	3	0.2	47.090000	-5.802000;
2	0.0	0.0	3	0.2	47.090000	-5.802000;
2	0.0	0.0	3	0.2	47.080000	-5.543000;
2	0.0	0.0	3	0.2	30.430000	-110.100000;
	2	 0.0	 0.0	 3	   0.005982	  29.240000	   0.000000;
2	0.0	0.0	3	0.2	30.590000	-253.400000;
2	0.0	0.0	3	0.2	33.270000	-288.800000;
2	0.0	0.0	3	0.2	0.000118	0.000000;
2	0.0	0.0	3	0.2	26.270000	-105.900000;
2	0.0	0.0	3	0.2	28.960000	-257.000000;
2	0.0	0.0	3	0.2	24.950000	-411.300000;
2	0.0	0.0	3	0.2	21.520000	-52.910000;
2	0.0	0.0	3	0.2	22.320000	-105.800000;
	2	 0.0	 0.0	 3	   0.000000	   0.000000	   0.000000;
2	0.0	0.0	3	0.2	27.480000	-243.300000;
2	0.0	0.0	3	0.2	27.810000	-295.700000;
2	0.0	0.0	3	0.2	0.000116	0.000000;
2	0.0	0.0	3	0.2	65.570000	-59.670000;
2	0.0	0.0	3	0.2	0.000110	0.000000;
	2	 0.0	 0.0	 3	   0.000000	   0.000000	   0.000000;
2	0.0	0.0	3	0.2	38.810000	-205.300000;
2	0.0	0.0	3	0.2	34.660000	-213.400000;
2	0.0	0.0	3	0.2	32.450000	-147.100000;
	2	 0.0	 0.0	 3	   0.004991	  33.340000	  -1.446000;
	2	 0.0	 0.0	 3	   0.017890	  26.170000	  -1.412000;
	2	 0.0	 0.0	 3	   0.017890	  27.340000	  -1.412000;
	2	 0.0	 0.0	 3	   0.017900	  27.980000	  -1.419000;
	2	 0.0	 0.0	 3	   0.017890	  26.190000	  -1.412000;
	2	 0.0	 0.0	 3	   0.017900	  26.030000	  -1.419000;
	2	 0.0	 0.0	 3	   0.017900	  29.520000	  -1.419000;
2	0.0	0.0	3	0.2	23.720000	-538.400000;
2	0.0	0.0	3	0.2	23.760000	-543.000000;
2	0.0	0.0	3	0.2	20.280000	-603.600000;
	2	 0.0	 0.0	 3	   0.036900	  12.510000	  -3.843000;
2	0.0	0.0	3	0.2	72.190000	-28.080000;
2	0.0	0.0	3	0.2	72.190000	-28.080000;
2	0.0	0.0	3	0.2	66.840000	-140.700000;
2	0.0	0.0	3	0.2	0.000310	0.000000;
2	0.0	0.0	3	0.2	28.700000	-118.000000;
2	0.0	0.0	3	0.2	24.690000	-107.100000;
2	0.0	0.0	3	0.2	24.520000	-180.200000;
2	0.0	0.0	3	0.2	20.060000	-139.500000;
2	0.0	0.0	3	0.2	20.060000	-139.500000;
2	0.0	0.0	3	0.2	22.590000	-137.800000;
2	0.0	0.0	3	0.2	22.570000	-136.300000;
2	0.0	0.0	3	0.2	23.690000	-144.400000;
2	0.0	0.0	3	0.2	23.710000	-145.900000;
2	0.0	0.0	3	0.2	23.710000	-145.900000;
2	0.0	0.0	3	0.2	23.690000	-144.400000;
2	0.0	0.0	3	0.2	19.370000	-62.690000;
2	0.0	0.0	3	0.2	19.270000	-53.670000;
2	0.0	0.0	3	0.2	19.270000	-53.670000;
2	0.0	0.0	3	0.2	19.270000	-53.670000;
2	0.0	0.0	3	0.2	21.850000	-87.580000;
2	0.0	0.0	3	0.2	21.850000	-87.580000;
2	0.0	0.0	3	0.2	21.850000	-87.580000;
2	0.0	0.0	3	0.2	34.910000	-96.250000;
2	0.0	0.0	3	0.2	27.970000	-142.700000;
2	0.0	0.0	3	0.2	0.000113	0.000000;
2	0.0	0.0	3	0.2	0.000155	0.000000;
2	0.0	0.0	3	0.2	0.000156	0.000000;
2	0.0	0.0	3	0.2	31.400000	-196.000000;
2	0.0	0.0	3	0.2	36.210000	-84.550000;
2	0.0	0.0	3	0.2	37.940000	-84.550000;
2	0.0	0.0	3	0.2	27.020000	-18.240000;
2	0.0	0.0	3	0.2	20.510000	-44.580000;
2	0.0	0.0	3	0.2	20.510000	-44.580000;
2	0.0	0.0	3	0.2	20.530000	-46.150000;
2	0.0	0.0	3	0.2	20.530000	-46.150000;
2	0.0	0.0	3	0.2	23.720000	-40.860000;
2	0.0	0.0	3	0.2	23.720000	-40.860000;
2	0.0	0.0	3	0.2	23.720000	-40.860000;
2	0.0	0.0	3	0.2	23.720000	-40.860000;
2	0.0	0.0	3	0.2	23.700000	-39.450000;
2	0.0	0.0	3	0.2	23.720000	-40.860000;
2	0.0	0.0	3	0.2	23.700000	-39.450000;
2	0.0	0.0	3	0.2	23.700000	-39.450000;
2	0.0	0.0	3	0.2	28.920000	-48.030000;
2	0.0	0.0	3	0.2	27.110000	-57.730000;
2	0.0	0.0	3	0.2	20.460000	-34.910000;
2	0.0	0.0	3	0.2	20.420000	-33.350000;
2	0.0	0.0	3	0.2	20.500000	-36.490000;
2	0.0	0.0	3	0.2	20.500000	-36.490000;
2	0.0	0.0	3	0.2	20.460000	-34.910000;
2	0.0	0.0	3	0.2	20.500000	-36.490000;
2	0.0	0.0	3	0.2	15.390000	-25.350000;
2	0.0	0.0	3	0.2	18.370000	-84.040000;
2	0.0	0.0	3	0.2	19.320000	-64.960000;
2	0.0	0.0	3	0.2	19.320000	-64.960000;
2	0.0	0.0	3	0.2	19.370000	-66.600000;
2	0.0	0.0	3	0.2	19.370000	-66.600000;
2	0.0	0.0	3	0.2	19.370000	-66.600000;
2	0.0	0.0	3	0.2	19.370000	-66.600000;
2	0.0	0.0	3	0.2	19.370000	-66.600000;
2	0.0	0.0	3	0.2	19.370000	-66.600000;
2	0.0	0.0	3	0.2	18.460000	-34.430000;
2	0.0	0.0	3	0.2	18.460000	-34.430000;
2	0.0	0.0	3	0.2	18.460000	-34.430000;
2	0.0	0.0	3	0.2	18.420000	-33.390000;
2	0.0	0.0	3	0.2	18.420000	-33.390000;
2	0.0	0.0	3	0.2	18.380000	-32.360000;
2	0.0	0.0	3	0.2	18.410000	-34.610000;
...
];

%% storage data
%	bus	energy	energy_rating	charge_rating	discharge_rating	thermal_rating	qmin	qmax	r	x	standby_loss	status
mpc.storage = [
	76687	0.0	0.0	1.00	2700.0000	1350.0000	972.0000	0.9	0.85	1000	-1000	1000	0.1	0.01	0	0	1;
	77367	0.0	0.0	1.00	898.5000	449.2500	323.4600	0.9	0.85	1000	-1000	1000	0.1	0.01	0	0	1;
	42790	0.0	0.0	1.00	644.6700	322.3350	232.0812	0.9	0.85	1000	-1000	1000	0.1	0.01	0	0	1;
	41379	0.0	0.0	1.00	581.2200	290.6100	209.2392	0.9	0.85	1000	-1000	1000	0.1	0.01	0	0	1;
	42835	0.0	0.0	1.00	545.1300	272.5650	196.2468	0.9	0.85	1000	-1000	1000	0.1	0.01	0	0	1;
	41465	0.0	0.0	1.00	531.4500	265.7250	191.3220	0.9	0.85	1000	-1000	1000	0.1	0.01	0	0	1;
	46300	0.0	0.0	1.00	517.0500	258.5250	186.1380	0.9	0.85	1000	-1000	1000	0.1	0.01	0	0	1;
	41859	0.0	0.0	1.00	496.5300	248.2650	178.7508	0.9	0.85	1000	-1000	1000	0.1	0.01	0	0	1;
	44731	0.0	0.0	1.00	491.2200	245.6100	176.8392	0.9	0.85	1000	-1000	1000	0.1	0.01	0	0	1;
	43054	0.0	0.0	1.00	486.0000	243.0000	174.9600	0.9	0.85	1000	-1000	1000	0.1	0.01	0	0	1;
	41333	0.0	0.0	1.00	480.6600	240.3300	173.0376	0.9	0.85	1000	-1000	1000	0.1	0.01	0	0	1;
	41146	0.0	0.0	1.00	475.2900	237.6450	171.1044	0.9	0.85	1000	-1000	1000	0.1	0.01	0	0	1;
	44824	0.0	0.0	1.00	456.0900	228.0450	164.1924	0.9	0.85	1000	-1000	1000	0.1	0.01	0	0	1;
	42144	0.0	0.0	1.00	449.5500	224.7750	161.8380	0.9	0.85	1000	-1000	1000	0.1	0.01	0	0	1;
	44429	0.0	0.0	1.00	449.1000	224.5500	161.6760	0.9	0.85	1000	-1000	1000	0.1	0.01	0	0	1;
	44654	0.0	0.0	1.00	418.6800	209.3400	150.7248	0.9	0.85	1000	-1000	1000	0.1	0.01	0	0	1;
	41306	0.0	0.0	1.00	394.3800	197.1900	141.9768	0.9	0.85	1000	-1000	1000	0.1	0.01	0	0	1;
	41668	0.0	0.0	1.00	382.6800	191.3400	137.7648	0.9	0.85	1000	-1000	1000	0.1	0.01	0	0	1;
	46303	0.0	0.0	1.00	378.5400	189.2700	136.2744	0.9	0.85	1000	-1000	1000	0.1	0.01	0	0	1;
	41584	0.0	0.0	1.00	370.4400	185.2200	133.3584	0.9	0.85	1000	-1000	1000	0.1	0.01	0	0	1;
	43496	0.0	0.0	1.00	361.9800	180.9900	130.3128	0.9	0.85	1000	-1000	1000	0.1	0.01	0	0	1;
	40111	0.0	0.0	1.00	361.8000	180.9000	130.2480	0.9	0.85	1000	-1000	1000	0.1	0.01	0	0	1;
	43025	0.0	0.0	1.00	338.5800	169.2900	121.8888	0.9	0.85	1000	-1000	1000	0.1	0.01	0	0	1;
	42547	0.0	0.0	1.00	334.0440	167.0220	120.2558	0.9	0.85	1000	-1000	1000	0.1	0.01	0	0	1;
	43134	0.0	0.0	1.00	314.5500	157.2750	113.2380	0.9	0.85	1000	-1000	1000	0.1	0.01	0	0	1;
	41336	0.0	0.0	1.00	306.0000	153.0000	110.1600	0.9	0.85	1000	-1000	1000	0.1	0.01	0	0	1;
	40250	0.0	0.0	1.00	297.9900	148.9950	107.2764	0.9	0.85	1000	-1000	1000	0.1	0.01	0	0	1;
	45735	0.0	0.0	1.00	297.9000	148.9500	107.2440	0.9	0.85	1000	-1000	1000	0.1	0.01	0	0	1;
	42104	0.0	0.0	1.00	287.0100	143.5050	103.3236	0.9	0.85	1000	-1000	1000	0.1	0.01	0	0	1;
	45743	0.0	0.0	1.00	277.6500	138.8250	99.9540	0.9	0.85	1000	-1000	1000	0.1	0.01	0	0	1;
	45425	0.0	0.0	1.00	276.7500	138.3750	99.6300	0.9	0.85	1000	-1000	1000	0.1	0.01	0	0	1;
	41615	0.0	0.0	1.00	270.7200	135.3600	97.4592	0.9	0.85	1000	-1000	1000	0.1	0.01	0	0	1;
	45489	0.0	0.0	1.00	255.5100	127.7550	91.9836	0.9	0.85	1000	-1000	1000	0.1	0.01	0	0	1;
	41517	0.0	0.0	1.00	252.4500	126.2250	90.8820	0.9	0.85	1000	-1000	1000	0.1	0.01	0	0	1;
	42711	0.0	0.0	1.00	238.0500	119.0250	85.6980	0.9	0.85	1000	-1000	1000	0.1	0.01	0	0	1;
	46122	0.0	0.0	1.00	228.3300	114.1650	82.1988	0.9	0.85	1000	-1000	1000	0.1	0.01	0	0	1;
	41128	0.0	0.0	1.00	227.9700	113.9850	82.0692	0.9	0.85	1000	-1000	1000	0.1	0.01	0	0	1;
	41192	0.0	0.0	1.00	225.6300	112.8150	81.2268	0.9	0.85	1000	-1000	1000	0.1	0.01	0	0	1;
	41622	0.0	0.0	1.00	214.6500	107.3250	77.2740	0.9	0.85	1000	-1000	1000	0.1	0.01	0	0	1;
	41537	0.0	0.0	1.00	211.3200	105.6600	76.0752	0.9	0.85	1000	-1000	1000	0.1	0.01	0	0	1;
	40238	0.0	0.0	1.00	208.5300	104.2650	75.0708	0.9	0.85	1000	-1000	1000	0.1	0.01	0	0	1;
	41523	0.0	0.0	1.00	200.1600	100.0800	72.0576	0.9	0.85	1000	-1000	1000	0.1	0.01	0	0	1;
	41609	0.0	0.0	1.00	199.3500	99.6750	71.7660	0.9	0.85	1000	-1000	1000	0.1	0.01	0	0	1;
	41918	0.0	0.0	1.00	197.8200	98.9100	71.2152	0.9	0.85	1000	-1000	1000	0.1	0.01	0	0	1;
	41884	0.0	0.0	1.00	194.8200	97.4100	70.1352	0.9	0.85	1000	-1000	1000	0.1	0.01	0	0	1;
	44415	0.0	0.0	1.00	192.6000	96.3000	69.3360	0.9	0.85	1000	-1000	1000	0.1	0.01	0	0	1;
	46371	0.0	0.0	1.00	188.5500	94.2750	67.8780	0.9	0.85	1000	-1000	1000	0.1	0.01	0	0	1;
	76222	0.0	0.0	1.00	187.5000	93.7500	67.5000	0.9	0.85	1000	-1000	1000	0.1	0.01	0	0	1;
	77411	0.0	0.0	1.00	187.5000	93.7500	67.5000	0.9	0.85	1000	-1000	1000	0.1	0.01	0	0	1;
	43320	0.0	0.0	1.00	180.1800	90.0900	64.8648	0.9	0.85	1000	-1000	1000	0.1	0.01	0	0	1;
	40897	0.0	0.0	1.00	179.2800	89.6400	64.5408	0.9	0.85	1000	-1000	1000	0.1	0.01	0	0	1;
	45149	0.0	0.0	1.00	174.1500	87.0750	62.6940	0.9	0.85	1000	-1000	1000	0.1	0.01	0	0	1;
	45764	0.0	0.0	1.00	169.7400	84.8700	61.1064	0.9	0.85	1000	-1000	1000	0.1	0.01	0	0	1;
	40186	0.0	0.0	1.00	167.5860	83.7930	60.3310	0.9	0.85	1000	-1000	1000	0.1	0.01	0	0	1;
	46495	0.0	0.0	1.00	165.9600	82.9800	59.7456	0.9	0.85	1000	-1000	1000	0.1	0.01	0	0	1;
	42164	0.0	0.0	1.00	160.0200	80.0100	57.6072	0.9	0.85	1000	-1000	1000	0.1	0.01	0	0	1;
	41479	0.0	0.0	1.00	156.9600	78.4800	56.5056	0.9	0.85	1000	-1000	1000	0.1	0.01	0	0	1;
	41350	0.0	0.0	1.00	144.2700	72.1350	51.9372	0.9	0.85	1000	-1000	1000	0.1	0.01	0	0	1;
	43709	0.0	0.0	1.00	139.7550	69.8775	50.3118	0.9	0.85	1000	-1000	1000	0.1	0.01	0	0	1;
	43410	0.0	0.0	1.00	136.8900	68.4450	49.2804	0.9	0.85	1000	-1000	1000	0.1	0.01	0	0	1;
	43161	0.0	0.0	1.00	135.2700	67.6350	48.6972	0.9	0.85	1000	-1000	1000	0.1	0.01	0	0	1;
	41344	0.0	0.0	1.00	133.5000	66.7500	48.0600	0.9	0.85	1000	-1000	1000	0.1	0.01	0	0	1;
	40997	0.0	0.0	1.00	131.9400	65.9700	47.4984	0.9	0.85	1000	-1000	1000	0.1	0.01	0	0	1;
	45381	0.0	0.0	1.00	125.4600	62.7300	45.1656	0.9	0.85	1000	-1000	1000	0.1	0.01	0	0	1;
	42809	0.0	0.0	1.00	124.8300	62.4150	44.9388	0.9	0.85	1000	-1000	1000	0.1	0.01	0	0	1;
	45732	0.0	0.0	1.00	121.9500	60.9750	43.9020	0.9	0.85	1000	-1000	1000	0.1	0.01	0	0	1;
	43699	0.0	0.0	1.00	121.6500	60.8250	43.7940	0.9	0.85	1000	-1000	1000	0.1	0.01	0	0	1;
	40226	0.0	0.0	1.00	121.3200	60.6600	43.6752	0.9	0.85	1000	-1000	1000	0.1	0.01	0	0	1;
	46464	0.0	0.0	1.00	120.3000	60.1500	43.3080	0.9	0.85	1000	-1000	1000	0.1	0.01	0	0	1;
	41235	0.0	0.0	1.00	117.0000	58.5000	42.1200	0.9	0.85	1000	-1000	1000	0.1	0.01	0	0	1;
	42648	0.0	0.0	1.00	116.6400	58.3200	41.9904	0.9	0.85	1000	-1000	1000	0.1	0.01	0	0	1;
	46836	0.0	0.0	1.00	114.0450	57.0225	41.0562	0.9	0.85	1000	-1000	1000	0.1	0.01	0	0	1;
	46439	0.0	0.0	1.00	113.3700	56.6850	40.8132	0.9	0.85	1000	-1000	1000	0.1	0.01	0	0	1;
	45886	0.0	0.0	1.00	107.7450	53.8725	38.7882	0.9	0.85	1000	-1000	1000	0.1	0.01	0	0	1;
	46307	0.0	0.0	1.00	106.8000	53.4000	38.4480	0.9	0.85	1000	-1000	1000	0.1	0.01	0	0	1;
	41614	0.0	0.0	1.00	106.5750	53.2875	38.3670	0.9	0.85	1000	-1000	1000	0.1	0.01	0	0	1;
	46011	0.0	0.0	1.00	106.3050	53.1525	38.2698	0.9	0.85	1000	-1000	1000	0.1	0.01	0	0	1;
	41357	0.0	0.0	1.00	105.1200	52.5600	37.8432	0.9	0.85	1000	-1000	1000	0.1	0.01	0	0	1;
	43408	0.0	0.0	1.00	103.6800	51.8400	37.3248	0.9	0.85	1000	-1000	1000	0.1	0.01	0	0	1;
	43869	0.0	0.0	1.00	100.5000	50.2500	36.1800	0.9	0.85	1000	-1000	1000	0.1	0.01	0	0	1;
	45413	0.0	0.0	1.00	100.5000	50.2500	36.1800	0.9	0.85	1000	-1000	1000	0.1	0.01	0	0	1;
	41756	0.0	0.0	1.00	97.8300	48.9150	35.2188	0.9	0.85	1000	-1000	1000	0.1	0.01	0	0	1;
	45919	0.0	0.0	1.00	97.5000	48.7500	35.1000	0.9	0.85	1000	-1000	1000	0.1	0.01	0	0	1;
	43446	0.0	0.0	1.00	95.1750	47.5875	34.2630	0.9	0.85	1000	-1000	1000	0.1	0.01	0	0	1;
	42405	0.0	0.0	1.00	94.6800	47.3400	34.0848	0.9	0.85	1000	-1000	1000	0.1	0.01	0	0	1;
	45678	0.0	0.0	1.00	94.5300	47.2650	34.0308	0.9	0.85	1000	-1000	1000	0.1	0.01	0	0	1;
	41043	0.0	0.0	1.00	93.2850	46.6425	33.5826	0.9	0.85	1000	-1000	1000	0.1	0.01	0	0	1;
	41732	0.0	0.0	1.00	93.1800	46.5900	33.5448	0.9	0.85	1000	-1000	1000	0.1	0.01	0	0	1;
	43768	0.0	0.0	1.00	90.5550	45.2775	32.5998	0.9	0.85	1000	-1000	1000	0.1	0.01	0	0	1;
	42528	0.0	0.0	1.00	90.0900	45.0450	32.4324	0.9	0.85	1000	-1000	1000	0.1	0.01	0	0	1;
	45266	0.0	0.0	1.00	90.0300	45.0150	32.4108	0.9	0.85	1000	-1000	1000	0.1	0.01	0	0	1;
	77801	0.0	0.0	1.00	90.0000	45.0000	32.4000	0.9	0.85	1000	-1000	1000	0.1	0.01	0	0	1;
	40998	0.0	0.0	1.00	87.0000	43.5000	31.3200	0.9	0.85	1000	-1000	1000	0.1	0.01	0	0	1;
	42332	0.0	0.0	1.00	85.9500	42.9750	30.9420	0.9	0.85	1000	-1000	1000	0.1	0.01	0	0	1;
	42594	0.0	0.0	1.00	84.8160	42.4080	30.5338	0.9	0.85	1000	-1000	1000	0.1	0.01	0	0	1;
	42847	0.0	0.0	1.00	84.2400	42.1200	30.3264	0.9	0.85	1000	-1000	1000	0.1	0.01	0	0	1;
	42505	0.0	0.0	1.00	84.0000	42.0000	30.2400	0.9	0.85	1000	-1000	1000	0.1	0.01	0	0	1;
	46591	0.0	0.0	1.00	83.9700	41.9850	30.2292	0.9	0.85	1000	-1000	1000	0.1	0.01	0	0	1;
	41193	0.0	0.0	1.00	83.1600	41.5800	29.9376	0.9	0.85	1000	-1000	1000	0.1	0.01	0	0	1;
	45524	0.0	0.0	1.00	82.9350	41.4675	29.8566	0.9	0.85	1000	-1000	1000	0.1	0.01	0	0	1;
	42751	0.0	0.0	1.00	82.8150	41.4075	29.8134	0.9	0.85	1000	-1000	1000	0.1	0.01	0	0	1;
	43758	0.0	0.0	1.00	82.3800	41.1900	29.6568	0.9	0.85	1000	-1000	1000	0.1	0.01	0	0	1;
	46704	0.0	0.0	1.00	82.0650	41.0325	29.5434	0.9	0.85	1000	-1000	1000	0.1	0.01	0	0	1;
	42536	0.0	0.0	1.00	80.7300	40.3650	29.0628	0.9	0.85	1000	-1000	1000	0.1	0.01	0	0	1;
	42593	0.0	0.0	1.00	80.6040	40.3020	29.0174	0.9	0.85	1000	-1000	1000	0.1	0.01	0	0	1;
	42713	0.0	0.0	1.00	80.2800	40.1400	28.9008	0.9	0.85	1000	-1000	1000	0.1	0.01	0	0	1;
	44117	0.0	0.0	1.00	79.9800	39.9900	28.7928	0.9	0.85	1000	-1000	1000	0.1	0.01	0	0	1;
	41669	0.0	0.0	1.00	78.7050	39.3525	28.3338	0.9	0.85	1000	-1000	1000	0.1	0.01	0	0	1;
	42545	0.0	0.0	1.00	76.8600	38.4300	27.6696	0.9	0.85	1000	-1000	1000	0.1	0.01	0	0	1;
	45981	0.0	0.0	1.00	75.4500	37.7250	27.1620	0.9	0.85	1000	-1000	1000	0.1	0.01	0	0	1;
	42066	0.0	0.0	1.00	75.1650	37.5825	27.0594	0.9	0.85	1000	-1000	1000	0.1	0.01	0	0	1;
	44107	0.0	0.0	1.00	74.9100	37.4550	26.9676	0.9	0.85	1000	-1000	1000	0.1	0.01	0	0	1;
	41187	0.0	0.0	1.00	73.7850	36.8925	26.5626	0.9	0.85	1000	-1000	1000	0.1	0.01	0	0	1;
	46012	0.0	0.0	1.00	73.0950	36.5475	26.3142	0.9	0.85	1000	-1000	1000	0.1	0.01	0	0	1;
	41670	0.0	0.0	1.00	72.8400	36.4200	26.2224	0.9	0.85	1000	-1000	1000	0.1	0.01	0	0	1;
	43921	0.0	0.0	1.00	71.1900	35.5950	25.6284	0.9	0.85	1000	-1000	1000	0.1	0.01	0	0	1;
	45479	0.0	0.0	1.00	70.6050	35.3025	25.4178	0.9	0.85	1000	-1000	1000	0.1	0.01	0	0	1;
	41001	0.0	0.0	1.00	70.5900	35.2950	25.4124	0.9	0.85	1000	-1000	1000	0.1	0.01	0	0	1;
	42330	0.0	0.0	1.00	70.5450	35.2725	25.3962	0.9	0.85	1000	-1000	1000	0.1	0.01	0	0	1;
	41400	0.0	0.0	1.00	70.4400	35.2200	25.3584	0.9	0.85	1000	-1000	1000	0.1	0.01	0	0	1;
	45321	0.0	0.0	1.00	70.2000	35.1000	25.2720	0.9	0.85	1000	-1000	1000	0.1	0.01	0	0	1;
	46428	0.0	0.0	1.00	69.7950	34.8975	25.1262	0.9	0.85	1000	-1000	1000	0.1	0.01	0	0	1;
	41110	0.0	0.0	1.00	69.2550	34.6275	24.9318	0.9	0.85	1000	-1000	1000	0.1	0.01	0	0	1;
	43982	0.0	0.0	1.00	68.9550	34.4775	24.8238	0.9	0.85	1000	-1000	1000	0.1	0.01	0	0	1;
	45131	0.0	0.0	1.00	68.9250	34.4625	24.8130	0.9	0.85	1000	-1000	1000	0.1	0.01	0	0	1;
	43236	0.0	0.0	1.00	67.8300	33.9150	24.4188	0.9	0.85	1000	-1000	1000	0.1	0.01	0	0	1;
	41230	0.0	0.0	1.00	67.6650	33.8325	24.3594	0.9	0.85	1000	-1000	1000	0.1	0.01	0	0	1;
	43141	0.0	0.0	1.00	67.5600	33.7800	24.3216	0.9	0.85	1000	-1000	1000	0.1	0.01	0	0	1;
	77956	0.0	0.0	1.00	67.5000	33.7500	24.3000	0.9	0.85	1000	-1000	1000	0.1	0.01	0	0	1;
	41633	0.0	0.0	1.00	67.0950	33.5475	24.1542	0.9	0.85	1000	-1000	1000	0.1	0.01	0	0	1;
	42022	0.0	0.0	1.00	66.9600	33.4800	24.1056	0.9	0.85	1000	-1000	1000	0.1	0.01	0	0	1;
	41715	0.0	0.0	1.00	66.6000	33.3000	23.9760	0.9	0.85	1000	-1000	1000	0.1	0.01	0	0	1;
	42556	0.0	0.0	1.00	66.2400	33.1200	23.8464	0.9	0.85	1000	-1000	1000	0.1	0.01	0	0	1;
	43997	0.0	0.0	1.00	64.9650	32.4825	23.3874	0.9	0.85	1000	-1000	1000	0.1	0.01	0	0	1;
	40999	0.0	0.0	1.00	64.5000	32.2500	23.2200	0.9	0.85	1000	-1000	1000	0.1	0.01	0	0	1;
	43168	0.0	0.0	1.00	63.7050	31.8525	22.9338	0.9	0.85	1000	-1000	1000	0.1	0.01	0	0	1;
	41947	0.0	0.0	1.00	63.6300	31.8150	22.9068	0.9	0.85	1000	-1000	1000	0.1	0.01	0	0	1;
	41105	0.0	0.0	1.00	63.5100	31.7550	22.8636	0.9	0.85	1000	-1000	1000	0.1	0.01	0	0	1;
	42661	0.0	0.0	1.00	63.2400	31.6200	22.7664	0.9	0.85	1000	-1000	1000	0.1	0.01	0	0	1;
	41945	0.0	0.0	1.00	63.1200	31.5600	22.7232	0.9	0.85	1000	-1000	1000	0.1	0.01	0	0	1;
	45900	0.0	0.0	1.00	63.0450	31.5225	22.6962	0.9	0.85	1000	-1000	1000	0.1	0.01	0	0	1;
	42076	0.0	0.0	1.00	62.9400	31.4700	22.6584	0.9	0.85	1000	-1000	1000	0.1	0.01	0	0	1;
	40172	0.0	0.0	1.00	62.4060	31.2030	22.4662	0.9	0.85	1000	-1000	1000	0.1	0.01	0	0	1;
	43805	0.0	0.0	1.00	62.2350	31.1175	22.4046	0.9	0.85	1000	-1000	1000	0.1	0.01	0	0	1;
	40976	0.0	0.0	1.00	62.0100	31.0050	22.3236	0.9	0.85	1000	-1000	1000	0.1	0.01	0	0	1;
	42331	0.0	0.0	1.00	61.6800	30.8400	22.2048	0.9	0.85	1000	-1000	1000	0.1	0.01	0	0	1;
	43851	0.0	0.0	1.00	61.5450	30.7725	22.1562	0.9	0.85	1000	-1000	1000	0.1	0.01	0	0	1;
	42329	0.0	0.0	1.00	61.5000	30.7500	22.1400	0.9	0.85	1000	-1000	1000	0.1	0.01	0	0	1;
	44106	0.0	0.0	1.00	61.0650	30.5325	21.9834	0.9	0.85	1000	-1000	1000	0.1	0.01	0	0	1;
	45653	0.0	0.0	1.00	61.0650	30.5325	21.9834	0.9	0.85	1000	-1000	1000	0.1	0.01	0	0	1;
	43537	0.0	0.0	1.00	60.6150	30.3075	21.8214	0.9	0.85	1000	-1000	1000	0.1	0.01	0	0	1;
	42045	0.0	0.0	1.00	60.4200	30.2100	21.7512	0.9	0.85	1000	-1000	1000	0.1	0.01	0	0	1;
	44197	0.0	0.0	1.00	60.1350	30.0675	21.6486	0.9	0.85	1000	-1000	1000	0.1	0.01	0	0	1;
	42710	0.0	0.0	1.00	59.4000	29.7000	21.3840	0.9	0.85	1000	-1000	1000	0.1	0.01	0	0	1;
	43136	0.0	0.0	1.00	59.1750	29.5875	21.3030	0.9	0.85	1000	-1000	1000	0.1	0.01	0	0	1;
	43440	0.0	0.0	1.00	58.6050	29.3025	21.0978	0.9	0.85	1000	-1000	1000	0.1	0.01	0	0	1;
	45750	0.0	0.0	1.00	58.2450	29.1225	20.9682	0.9	0.85	1000	-1000	1000	0.1	0.01	0	0	1;
	40925	0.0	0.0	1.00	57.5100	28.7550	20.7036	0.9	0.85	1000	-1000	1000	0.1	0.01	0	0	1;
	44191	0.0	0.0	1.00	57.2250	28.6125	20.6010	0.9	0.85	1000	-1000	1000	0.1	0.01	0	0	1;
	43853	0.0	0.0	1.00	56.9550	28.4775	20.5038	0.9	0.85	1000	-1000	1000	0.1	0.01	0	0	1;
	41627	0.0	0.0	1.00	56.6700	28.3350	20.4012	0.9	0.85	1000	-1000	1000	0.1	0.01	0	0	1;
	40263	0.0	0.0	1.00	56.3850	28.1925	20.2986	0.9	0.85	1000	-1000	1000	0.1	0.01	0	0	1;
	46686	0.0	0.0	1.00	55.6350	27.8175	20.0286	0.9	0.85	1000	-1000	1000	0.1	0.01	0	0	1;
	42997	0.0	0.0	1.00	55.5000	27.7500	19.9800	0.9	0.85	1000	-1000	1000	0.1	0.01	0	0	1;
	44482	0.0	0.0	1.00	54.9750	27.4875	19.7910	0.9	0.85	1000	-1000	1000	0.1	0.01	0	0	1;
	42736	0.0	0.0	1.00	54.7050	27.3525	19.6938	0.9	0.85	1000	-1000	1000	0.1	0.01	0	0	1;
	45328	0.0	0.0	1.00	54.5700	27.2850	19.6452	0.9	0.85	1000	-1000	1000	0.1	0.01	0	0	1;
	41831	0.0	0.0	1.00	54.2550	27.1275	19.5318	0.9	0.85	1000	-1000	1000	0.1	0.01	0	0	1;
	43280	0.0	0.0	1.00	54.2550	27.1275	19.5318	0.9	0.85	1000	-1000	1000	0.1	0.01	0	0	1;
	41882	0.0	0.0	1.00	54.2400	27.1200	19.5264	0.9	0.85	1000	-1000	1000	0.1	0.01	0	0	1;
	43852	0.0	0.0	1.00	54.2250	27.1125	19.5210	0.9	0.85	1000	-1000	1000	0.1	0.01	0	0	1;
	41195	0.0	0.0	1.00	54.1800	27.0900	19.5048	0.9	0.85	1000	-1000	1000	0.1	0.01	0	0	1;
	41233	0.0	0.0	1.00	53.9250	26.9625	19.4130	0.9	0.85	1000	-1000	1000	0.1	0.01	0	0	1;
	42284	0.0	0.0	1.00	53.2350	26.6175	19.1646	0.9	0.85	1000	-1000	1000	0.1	0.01	0	0	1;
	42977	0.0	0.0	1.00	52.8150	26.4075	19.0134	0.9	0.85	1000	-1000	1000	0.1	0.01	0	0	1;
	44867	0.0	0.0	1.00	52.6950	26.3475	18.9702	0.9	0.85	1000	-1000	1000	0.1	0.01	0	0	1;
	44666	0.0	0.0	1.00	52.5300	26.2650	18.9108	0.9	0.85	1000	-1000	1000	0.1	0.01	0	0	1;
	44690	0.0	0.0	1.00	52.4100	26.2050	18.8676	0.9	0.85	1000	-1000	1000	0.1	0.01	0	0	1;
	44083	0.0	0.0	1.00	52.3200	26.1600	18.8352	0.9	0.85	1000	-1000	1000	0.1	0.01	0	0	1;
	40201	0.0	0.0	1.00	52.2750	26.1375	18.8190	0.9	0.85	1000	-1000	1000	0.1	0.01	0	0	1;
	42215	0.0	0.0	1.00	52.2750	26.1375	18.8190	0.9	0.85	1000	-1000	1000	0.1	0.01	0	0	1;
	42080	0.0	0.0	1.00	52.2000	26.1000	18.7920	0.9	0.85	1000	-1000	1000	0.1	0.01	0	0	1;
	43266	0.0	0.0	1.00	52.0350	26.0175	18.7326	0.9	0.85	1000	-1000	1000	0.1	0.01	0	0	1;
	42596	0.0	0.0	1.00	52.0050	26.0025	18.7218	0.9	0.85	1000	-1000	1000	0.1	0.01	0	0	1;
	41342	0.0	0.0	1.00	51.9900	25.9950	18.7164	0.9	0.85	1000	-1000	1000	0.1	0.01	0	0	1;
	45158	0.0	0.0	1.00	51.9600	25.9800	18.7056	0.9	0.85	1000	-1000	1000	0.1	0.01	0	0	1;
	44782	0.0	0.0	1.00	51.4650	25.7325	18.5274	0.9	0.85	1000	-1000	1000	0.1	0.01	0	0	1;
	42126	0.0	0.0	1.00	51.4200	25.7100	18.5112	0.9	0.85	1000	-1000	1000	0.1	0.01	0	0	1;
	43239	0.0	0.0	1.00	51.3900	25.6950	18.5004	0.9	0.85	1000	-1000	1000	0.1	0.01	0	0	1;
	42600	0.0	0.0	1.00	51.3300	25.6650	18.4788	0.9	0.85	1000	-1000	1000	0.1	0.01	0	0	1;
	40267	0.0	0.0	1.00	51.0000	25.5000	18.3600	0.9	0.85	1000	-1000	1000	0.1	0.01	0	0	1;
	41900	0.0	0.0	1.00	50.9700	25.4850	18.3492	0.9	0.85	1000	-1000	1000	0.1	0.01	0	0	1;
	42047	0.0	0.0	1.00	50.9700	25.4850	18.3492	0.9	0.85	1000	-1000	1000	0.1	0.01	0	0	1;
	44872	0.0	0.0	1.00	50.9700	25.4850	18.3492	0.9	0.85	1000	-1000	1000	0.1	0.01	0	0	1;
	42788	0.0	0.0	1.00	50.9550	25.4775	18.3438	0.9	0.85	1000	-1000	1000	0.1	0.01	0	0	1;
	41888	0.0	0.0	1.00	50.8050	25.4025	18.2898	0.9	0.85	1000	-1000	1000	0.1	0.01	0	0	1;
	42696	0.0	0.0	1.00	50.5350	25.2675	18.1926	0.9	0.85	1000	-1000	1000	0.1	0.01	0	0	1;
	41082	0.0	0.0	1.00	50.4300	25.2150	18.1548	0.9	0.85	1000	-1000	1000	0.1	0.01	0	0	1;
	41452	0.0	0.0	1.00	50.2650	25.1325	18.0954	0.9	0.85	1000	-1000	1000	0.1	0.01	0	0	1;
	44181	0.0	0.0	1.00	50.1900	25.0950	18.0684	0.9	0.85	1000	-1000	1000	0.1	0.01	0	0	1;
...
];

%% branch data
%	fbus	tbus	r	x	b	rateA	rateB	rateC	ratio	angle	status	angmin	angmax
mpc.branch = [
	39876	 44106	 0.00473964	 0.05506	 0.02232	 397.0	 397.0	 397.0	 0.0	 0.0	 1	 -30.0	 30.0;
	39877	 43705	 0.0137014	 0.04906	 0.00101	 88.75	 88.75	 144.0	 0.0	 0.0	 1	 -30.0	 30.0;
	39879	 43441	 0.000993929	 0.01159	 0.00426	 384.0	 384.0	 384.0	 0.0	 0.0	 1	 -30.0	 30.0;
	39879	 76813	 0.00547071	 0.01653	 0.0044	 148.0	 148.0	 148.0	 0.0	 0.0	 1	 -30.0	 30.0;
	39880	 75452	 0.00416464	 0.01714	 0.00971	 294.0	 294.0	 294.0	 0.0	 0.0	 1	 -30.0	 30.0;
	39880	 75520	 0.0010925	 0.01639	 0.00529	 434.0	 434.0	 434.0	 0.0	 0.0	 1	 -30.0	 30.0;
	39881	 43384	 0.168861	 0.47758	 0.0091	 73.75	 73.75	 73.75	 0.0	 0.0	 1	 -30.0	 30.0;
	39881	 43385	 0.152334	 0.43077	 0.00821	 73.75	 73.75	 73.75	 0.0	 0.0	 1	 -30.0	 30.0;
	39882	 43874	 0.04002	 0.11537	 0.00211	 73.75	 73.75	 73.75	 0.0	 0.0	 1	 -30.0	 30.0;
	39882	 43877	 0.0138246	 0.06475	 0.00111	 100.0	 100.0	 100.0	 0.0	 0.0	 1	 -30.0	 30.0;
	39883	 43294	 0.0895111	 0.25811	 0.00472	 73.75	 73.75	 73.75	 0.0	 0.0	 1	 -30.0	 30.0;
	39883	 43554	 0.131174	 0.40161	 0.00651	 73.75	 73.75	 73.75	 0.0	 0.0	 1	 -30.0	 30.0;
	39884	 43409	 0.0218993	 0.10372	 0.00173	 100.0	 100.0	 144.0	 0.0	 0.0	 1	 -30.0	 30.0;
	39886	 43390	 0.0985796	 0.3053	 0.00483	 73.75	 73.75	 73.75	 0.0	 0.0	 1	 -30.0	 30.0;
	39886	 43391	 0.0671107	 0.21594	 0.00316	 73.75	 73.75	 73.75	 0.0	 0.0	 1	 -30.0	 30.0;
	39886	 43394	 0.0585432	 0.18126	 0.00287	 73.75	 73.75	 73.75	 0.0	 0.0	 1	 -30.0	 30.0;
	39887	 44076	 0.0810832	 0.25378	 0.00393	 73.75	 73.75	 73.75	 0.0	 0.0	 1	 -30.0	 30.0;
	39887	 44077	 0.0791118	 0.2281	 0.00417	 73.75	 73.75	 73.75	 0.0	 0.0	 1	 -30.0	 30.0;
	39889	 43565	 0.156991	 0.40835	 0.00923	 73.75	 73.75	 73.75	 0.0	 0.0	 1	 -30.0	 30.0;
	39889	 43567	 0.0918029	 0.27363	 0.00468	 73.75	 73.75	 73.75	 0.0	 0.0	 1	 -30.0	 30.0;
	39889	 44015	 0.0530479	 0.1603	 0.00266	 73.75	 73.75	 73.75	 0.0	 0.0	 1	 -30.0	 30.0;
	39889	 44016	 0.0825371	 0.25559	 0.00404	 73.75	 73.75	 73.75	 0.0	 0.0	 1	 -30.0	 30.0;
	39890	 76797	 0.00680964	 0.0852	 0.16798	 592.0	 592.0	 592.0	 0.0	 0.0	 1	 -30.0	 30.0;
	39891	 42755	 0.00161821	 0.00589	 0.00133	 160.0	 160.0	 160.0	 0.0	 0.0	 1	 -30.0	 30.0;
	39891	 77043	 0.0001725	 0.00326	 0.00221	 813.0	 813.0	 813.0	 0.0	 0.0	 1	 -30.0	 30.0;
...